sol/case2737sop.m
function mpc = case2737sop
%CASE2737SOP

%% MATPOWER Case Format : Version 2
mpc.version = '2';

%%-----  Power Flow Data  -----%%
%% system MVA base
mpc.baseMVA = 100;

%% bus data
%	bus_i	type	Pd	Qd	Gs	Bs	area	Vm	Va	baseKV	zone	Vmax	Vmin	lam_P	lam_Q	mu_Vmax	mu_Vmin
mpc.bus = [
	1	1	0	0	0	0	1	1.09901695	3.24816321	220	1	1.11	0.95	89.4541	0.1764	0.0000	0.0000;
	2	1	0	0	0	0	1	1.10641111	2.16817678	220	1	1.11	0.95	89.7960	-0.0343	0.0000	0.0000;
	3	1	0	0	0	0	1	1.08147917	-12.4787097	220	1	1.11	0.95	96.4431	-0.3427	0.0000	0.0000;
	4	1	0	0	0	0	1	1.09807427	-0.113354255	220	1	1.11	0.95	90.6899	0.0164	0.0000	0.0000;
	5	1	0	0	0	0	1	1.09808416	-0.10920767	220	1	1.11	0.95	90.6899	0.0169	0.0000	0.0000;
	6	1	0	0	0	0	1	1.0780827	-7.25502783	220	1	1.11	0.95	93.2980	-0.4700	0.0000	0.0000;
	7	1	0	0	0	0	1	1.07816582	-7.25240889	220	1	1.11	0.95	93.2950	-0.4715	0.0000	0.0000;
	8	1	0	0	0	-50	1	1.04221442	-5.25710505	400	1	1.05	0.95	92.7655	-0.7349	0.0000	0.0000;
	9	1	0	0	0	0	1	1.042245	-5.25672883	400	1	1.05	0.95	92.7649	-0.7357	0.0000	0.0000;
	10	1	0	0	0	0	1	1.07134147	-6.84636469	220	1	1.11	0.95	93.4477	-0.3035	0.0000	0.0000;
	11	1	0	0	0	0	1	1.07131324	-6.84987315	220	1	1.11	0.95	93.4491	-0.3020	0.0000	0.0000;
	12	1	0	0	0	0	1	1.07131022	-6.847051	220	1	1.11	0.95	93.4487	-0.3004	0.0000	0.0000;
	13	1	0	0	0	0	1	1.07129008	-6.85391602	220	1	1.11	0.95	93.4495	-0.3005	0.0000	0.0000;
	14	1	0	0	0	-50	1	1.03622635	-4.22992238	400	1	1.05	0.95	92.4285	-0.4336	0.0000	0.0000;
	15	1	0	0	0	0	1	1.05	-6.64634689	400	1	1.05	0.95	93.0069	-1.4941	1073.0093	0.0000;
	16	1	0	0	0	0	1	1.05	-6.64634689	400	1	1.05	0.95	93.0069	-1.4948	1073.0093	0.0000;
	17	1	0	0	0	0	1	1.07530273	-10.4251732	220	1	1.11	0.95	95.1434	-0.0918	0.0000	0.0000;
	18	1	0	0	0	0	1	1.07524684	-10.4247308	220	1	1.11	0.95	95.1424	-0.0899	0.0000	0.0000;
	19	1	0	0	0	0	1	1.1008412	0.45058507	220	1	1.11	0.95	90.4091	0.0200	0.0000	0.0000;
	20	1	0	0	0	0	1	1.10086258	0.445613875	220	1	1.11	0.95	90.4100	0.0199	0.0000	0.0000;
	21	1	0	0	0	0	1	1.08232888	-6.81963673	220	1	1.11	0.95	93.2572	-0.1720	0.0000	0.0000;
	22	1	0	0	0	0	1	1.08232888	-6.81963673	220	1	1.11	0.95	93.2572	-0.1720	0.0000	0.0000;
	23	1	0	0	0	0	1	1.06873004	-6.89730146	220	1	1.11	0.95	93.4673	-0.3493	0.0000	0.0000;
	24	1	0	0	0	0	1	1.10263319	0.790046958	220	1	1.11	0.95	90.3411	-0.0307	0.0000	0.0000;
	25	1	0	0	0	-50	1	1.03835173	-7.07292422	400	1	1.05	0.95	93.5885	-0.0989	0.0000	0.0000;
	26	2	48.178	65.087	0	0	1	1.10841333	3.58583049	220	1	1.11	0.95	89.2740	-0.0000	0.0000	0.0000;
	27	2	28.145	35.087	0	0	1	1.10753428	2.14785358	220	1	1.11	0.95	89.8202	-0.0642	0.0000	0.0000;
	28	3	0	0	0	0	1	1.04498289	1.77808	400	1	1.05	0.95	90.1770	-0.0800	0.0000	0.0000;
	29	2	44.698	72	0	0	1	1.04497609	1.78677331	400	1	1.05	0.95	90.1743	-0.0800	0.0000	0.0000;
	30	1	0	0	0	0	1	1.07648039	-6.96703115	220	1	1.11	0.95	93.5173	-0.2140	0.0000	0.0000;
	31	1	0	0	0	0	1	1.0465012	0.815249581	400	1	1.05	0.95	90.3433	-0.1524	0.0000	0.0000;
	32	1	0	0	0	0	1	1.06914504	-7.00103901	220	1	1.11	0.95	93.5273	-0.2624	0.0000	0.0000;
	33	1	0	0	0	0	1	1.09945794	-1.39721724	220	1	1.11	0.95	91.0654	0.0323	0.0000	0.0000;
	34	1	0	0	0	0	1	1.11	-3.53569763	220	2	1.11	0.95	90.8130	-4.4809	11884.5134	0.0000;
	35	1	0	0	0	0	1	1.08056087	-4.33736574	220	2	1.11	0.95	92.2381	-1.4295	0.0000	0.0000;
	36	1	0	0	0	0	1	1.09703909	-3.88806672	220	2	1.11	0.95	91.8324	-1.7482	0.0000	0.0000;
	37	1	0	0	0	0	1	1.09699495	-3.88956935	220	2	1.11	0.95	91.8335	-1.7456	0.0000	0.0000;
	38	1	0	0	0	0	1	1.10027246	-3.77952377	220	2	1.11	0.95	91.1202	-3.1841	0.0000	0.0000;
	39	1	0	0	0	0	1	1.10711695	-3.94317319	220	2	1.11	0.95	92.1527	-1.1139	0.0000	0.0000;
	40	1	0	0	0	0	1	1.10705833	-3.94612765	220	2	1.11	0.95	92.1540	-1.1129	0.0000	0.0000;
	41	1	0	0	0	0	1	1.0389123	-3.84813457	400	2	1.05	0.95	92.1117	-1.0874	0.0000	0.0000;
	42	2	13	0	0	0	1	1.08432732	-3.63208407	220	2	1.11	0.95	91.7104	-1.1994	0.0000	0.0000;
	43	2	13	0	0	0	1	1.08435769	-3.62305538	220	2	1.11	0.95	91.7077	-1.2028	0.0000	0.0000;
	44	2	25	0	0	0	1	1.04948652	-3.69214928	400	2	1.05	0.95	91.9632	-1.1588	0.0000	0.0000;
	45	1	0	0	0	0	1	1.0495061	-3.69175907	400	2	1.05	0.95	91.9614	-1.1605	0.0000	0.0000;
	46	1	0	0	0	0	1	1.10661913	-4.23251387	220	2	1.11	0.95	92.3465	-1.1137	0.0000	0.0000;
	47	1	0	0	0	0	1	1.03879272	-6.43519504	400	2	1.05	0.95	92.8582	-0.8927	0.0000	0.0000;
	48	1	0	0	0	0	1	1.03879657	-6.43940703	400	2	1.05	0.95	92.8600	-0.8925	0.0000	0.0000;
	49	1	0	0	0	0	1	1.04662961	-3.58747263	400	2	1.05	0.95	91.6686	-1.5077	0.0000	0.0000;
	50	1	0	0	0	0	1	1.10035494	-3.20912523	220	2	1.11	0.95	90.7525	-3.2779	0.0000	0.0000;
	51	1	0	0	0	0	1	1.10032972	-3.20655337	220	2	1.11	0.95	90.7526	-3.2760	0.0000	0.0000;
	52	1	0	0	0	0	1	1.04779582	-4.17107645	400	2	1.05	0.95	92.1594	-1.1841	0.0000	0.0000;
	53	1	0	0	0	0	1	1.04779226	-4.17023764	400	2	1.05	0.95	92.1594	-1.1841	0.0000	0.0000;
	54	1	0	0	0	0	1	1.09777477	-3.59269667	220	2	1.11	0.95	91.8019	-1.3761	0.0000	0.0000;
	55	2	13	0	0	0	1	1.09774462	-3.58597156	220	2	1.11	0.95	91.7977	-1.3775	0.0000	0.0000;
	56	2	13	0	0	0	1	1.04594381	-3.74430557	400	2	1.05	0.95	92.0349	-1.1069	0.0000	0.0000;
	57	2	13	0	0	0	1	1.04592721	-3.74779908	400	2	1.05	0.95	92.0363	-1.1067	0.0000	0.0000;
	58	2	67.882	25.273	0	0	1	1.09017111	-3.8349927	220	2	1.11	0.95	91.6228	-1.9772	0.0000	0.0000;
	59	1	0	0	0	0	1	1.09023741	-3.83249097	220	2	1.11	0.95	91.6208	-1.9836	0.0000	0.0000;
	60	1	0	0	0	0	1	1.10325076	-4.31209297	220	2	1.11	0.95	92.3332	-1.1330	0.0000	0.0000;
	61	1	0	0	0	0	1	1.08983537	-4.08138697	220	2	1.11	0.95	91.9929	-1.3267	0.0000	0.0000;
	62	1	0	0	0	0	1	1.08979968	-4.08133954	220	2	1.11	0.95	91.9922	-1.3286	0.0000	0.0000;
	63	1	0	0	0	0	1	1.03752351	-4.59721696	400	2	1.05	0.95	92.2902	-0.9229	0.0000	0.0000;
	64	1	0	0	0	0	1	1.03754706	-4.60526786	400	2	1.05	0.95	92.2929	-0.9231	0.0000	0.0000;
	65	1	0	224.802	0	0	1	1.04966017	-4.58005651	750	2	1.05	0.9	92.2902	-0.9064	0.0000	0.0000;
	66	1	0	0	0	0	1	1.10117201	-4.09839069	220	2	1.11	0.95	91.7019	-2.5633	0.0000	0.0000;
	67	1	0	0	0	0	1	1.10182034	-4.00802697	220	2	1.11	0.95	91.6418	-2.6076	0.0000	0.0000;
	68	1	0	0	0	0	1	1.09693203	-2.69966005	220	2	1.11	0.95	90.5691	-3.0611	0.0000	0.0000;
	69	1	0	0	0	0	1	1.09999164	-1.48421718	220	3	1.11	0.95	91.1478	-0.2189	0.0000	0.0000;
	70	1	0	0	0	0	1	1.10080252	-4.4724596	220	3	1.11	0.95	92.2378	-0.9260	0.0000	0.0000;
	71	1	0	0	0	0	1	1.10079769	-4.47111709	220	3	1.11	0.95	92.2371	-0.9271	0.0000	0.0000;
	72	1	0	0	0	0	1	1.08637685	-4.36786535	220	3	1.11	0.95	92.3507	0.0114	0.0000	0.0000;
	73	1	0	0	0	0	1	1.08638853	-4.35593905	220	3	1.11	0.95	92.3473	0.0111	0.0000	0.0000;
	74	1	0	0	0	0	1	1.09513495	-3.34412502	220	3	1.11	0.95	91.7343	-0.0662	0.0000	0.0000;
	75	1	0	0	0	0	1	1.09511426	-3.34545201	220	3	1.11	0.95	91.7352	-0.0662	0.0000	0.0000;
	76	1	0	0	0	0	1	1.08126985	-8.00895137	220	3	1.11	0.95	94.1465	0.0101	0.0000	0.0000;
	77	1	0	0	0	0	1	1.08126321	-8.01225991	220	3	1.11	0.95	94.1483	0.0102	0.0000	0.0000;
	78	2	27	70	0	0	1	1.08788443	-3.54538081	220	3	1.11	0.95	91.9848	-0.0000	0.0000	0.0000;
	79	2	9	21	0	0	1	1.08838353	-4.13020451	220	3	1.11	0.95	92.2821	-0.0435	0.0000	0.0000;
	80	1	4.602	0.91	0	0	1	1.0873544	-4.22942697	220	3	1.11	0.95	92.3858	0.0157	0.0000	0.0000;
	81	1	0	0	0	0	1	1.08734889	-4.22961325	220	3	1.11	0.95	92.3863	0.0155	0.0000	0.0000;
	82	2	18	57	0	0	1	1.03880555	-0.611849845	400	3	1.05	0.95	90.7668	-0.1735	0.0000	0.0000;
	83	1	0	0	0	0	1	1.10792765	-2.47041568	220	3	1.11	0.95	91.1678	-0.3512	0.0000	0.0000;
	84	1	0	0	0	0	1	1.09163839	-4.0478366	220	3	1.11	0.95	92.0751	-0.0084	0.0000	0.0000;
	85	1	0	0	0	0	1	1.09160071	-4.04916925	220	3	1.11	0.95	92.0761	-0.0086	0.0000	0.0000;
	86	1	32.969	-8.4	0	0	1	1.10063007	-1.62923479	220	3	1.11	0.95	91.1813	-0.2313	0.0000	0.0000;
	87	1	0	0	0	0	1	1.10062882	-1.63374369	220	3	1.11	0.95	91.1829	-0.2313	0.0000	0.0000;
	88	1	0	0	0	0	1	1.08660428	-3.59172528	220	3	1.11	0.95	91.9372	0.0584	0.0000	0.0000;
	89	1	0	0	0	0	1	1.0865771	-3.59212633	220	3	1.11	0.95	91.9372	0.0584	0.0000	0.0000;
	90	1	0	0	0	0	1	1.10044737	-1.25870784	220	3	1.11	0.95	91.0161	-0.2108	0.0000	0.0000;
	91	1	0	0	0	0	1	1.10046273	-1.26219479	220	3	1.11	0.95	91.0166	-0.2117	0.0000	0.0000;
	92	1	0	0	0	0	1	1.0486485	0.0625200131	400	3	1.05	0.95	90.7531	-0.2014	0.0000	0.0000;
	93	1	0	0	0	0	1	1.04863944	0.061506852	400	3	1.05	0.95	90.7533	-0.2014	0.0000	0.0000;
	94	1	0	0	0	0	1	1.08997867	-3.69029992	220	3	1.11	0.95	91.9076	0.0091	0.0000	0.0000;
	95	1	0	0	0	0	1	1.09000111	-3.6952573	220	3	1.11	0.95	91.9090	0.0090	0.0000	0.0000;
	96	1	0	0	0	0	1	1.10070538	-2.91103348	220	3	1.11	0.95	91.4109	-0.1476	0.0000	0.0000;
	97	1	0	0	0	0	1	1.10074691	-2.90881672	220	3	1.11	0.95	91.4100	-0.1486	0.0000	0.0000;
	98	2	9.938	2.19	0	0	1	1.09119547	-3.78832375	220	3	1.11	0.95	92.1227	-0.1392	0.0000	0.0000;
	99	1	16.652	3.293	0	0	1	1.09121595	-3.78590323	220	3	1.11	0.95	92.1219	-0.1399	0.0000	0.0000;
	100	1	0	0	0	0	1	1.10077821	-4.47095382	220	3	1.11	0.95	92.2371	-0.9266	0.0000	0.0000;
	101	1	0	0	0	0	1	1.10078309	-4.47229676	220	3	1.11	0.95	92.2378	-0.9254	0.0000	0.0000;
	102	1	0	0	0	0	1	1.08189867	-7.43601825	220	3	1.11	0.95	93.9184	0.0324	0.0000	0.0000;
	103	1	0	0	0	0	1	1.08190269	-7.42563856	220	3	1.11	0.95	93.9148	0.0325	0.0000	0.0000;
	104	2	14	40	0	0	1	1.09241883	-4.05451394	220	3	1.11	0.95	92.0999	0.0000	0.0000	0.0000;
	105	1	0	0	0	0	1	1.09230932	-4.07344201	220	3	1.11	0.95	92.1074	0.0016	0.0000	0.0000;
	106	2	7	18	0	0	1	1.09021237	-3.29432081	220	3	1.11	0.95	91.7638	-0.0000	0.0000	0.0000;
	107	1	0	0	0	0	1	1.09016752	-3.29402335	220	3	1.11	0.95	91.7640	-0.0002	0.0000	0.0000;
	108	1	27.63	5.872	0	0	1	1.09446023	-3.32356043	220	3	1.11	0.95	91.9183	-0.2354	0.0000	0.0000;
	109	1	17.522	3.337	0	0	1	1.09447484	-3.33082318	220	3	1.11	0.95	91.9206	-0.2366	0.0000	0.0000;
	110	1	0	0	0	0	1	1.08576819	-4.61350154	220	3	1.11	0.95	92.6224	-0.1118	0.0000	0.0000;
	111	1	0	0	0	0	1	1.08776051	-4.09340582	220	3	1.11	0.95	92.2350	0.0929	0.0000	0.0000;
	112	1	0	0	0	0	1	1.08776673	-4.09412099	220	3	1.11	0.95	92.2356	0.0925	0.0000	0.0000;
	113	1	0	0	0	0	1	1.0867428	-4.24025111	220	3	1.11	0.95	92.4185	0.0044	0.0000	0.0000;
	114	1	0	0	0	0	1	1.08674957	-4.23515606	220	3	1.11	0.95	92.4163	0.0042	0.0000	0.0000;
	115	1	0	0	0	0	1	1.03673989	-2.08885113	400	3	1.05	0.95	91.3773	-0.2474	0.0000	0.0000;
	116	1	0	0	0	0	1	1.08924856	-3.81577526	220	3	1.11	0.95	92.1448	-0.0892	0.0000	0.0000;
	117	2	8	15	0	0	1	1.08923153	-3.80638508	220	3	1.11	0.95	92.1419	-0.0884	0.0000	0.0000;
	118	1	0	0	0	0	1	1.08842565	-4.40065238	220	3	1.11	0.95	92.4356	-0.1892	0.0000	0.0000;
	119	1	0	0	0	0	1	1.08844016	-4.39942115	220	3	1.11	0.95	92.4346	-0.1901	0.0000	0.0000;
	120	1	0	0	0	0	1	1.04710684	-3.94351911	400	3	1.05	0.95	92.0946	-0.9624	0.0000	0.0000;
	121	1	0	0	0	0	1	1.04714483	-3.93955855	400	3	1.05	0.95	92.0930	-0.9625	0.0000	0.0000;
	122	1	0	0	0	0	1	1.04312539	-1.90225366	400	3	1.05	0.95	91.2973	-0.3787	0.0000	0.0000;
	123	1	0	0	0	0	1	1.04317416	-1.89926649	400	3	1.05	0.95	91.2964	-0.3796	0.0000	0.0000;
	124	1	0	0	0	0	1	1.08520813	-4.68563853	220	3	1.11	0.95	92.6854	-0.1137	0.0000	0.0000;
	125	1	2.929	0.867	0	0	1	1.09803293	-3.08370972	220	3	1.11	0.95	91.5213	-0.0537	0.0000	0.0000;
	126	2	19.898	27.707	0	0	1	1.09785256	-3.07820177	220	3	1.11	0.95	91.5216	-0.0507	0.0000	0.0000;
	127	2	12.2	25.8	0	0	1	1.03152188	-1.74496248	400	3	1.05	0.95	91.2698	-0.1117	0.0000	0.0000;
	128	1	0	0	0	0	1	1.03145106	-1.74939623	400	3	1.05	0.95	91.2717	-0.1111	0.0000	0.0000;
	129	1	0	0	0	0	1	1.10052236	-1.72350801	220	3	1.11	0.95	91.2247	-0.2322	0.0000	0.0000;
	130	1	0	0	0	0	1	1.1004765	-1.72430805	220	3	1.11	0.95	91.2246	-0.2314	0.0000	0.0000;
	131	1	0	0	0	0	1	1.09984787	-1.60631727	220	3	1.11	0.95	91.1730	-0.2102	0.0000	0.0000;
	132	2	137	9	0	0	1	1.0806527	-8.43163801	220	3	1.11	0.95	94.3339	0.0000	0.0000	0.0000;
	133	2	137	6	0	0	1	1.08065153	-8.43632266	220	3	1.11	0.95	94.3357	0.0000	0.0000	0.0000;
	134	1	0.515	1.973	0	0	1	1.1014341	-2.06014258	220	4	1.11	0.95	91.2359	0.0003	0.0000	0.0000;
	135	2	15.242	14.277	0	0	1	1.10145854	-2.05739519	220	4	1.11	0.95	91.2347	-0.0000	0.0000	0.0000;
	136	1	0	0	0	0	1	1.10903448	-2.79300672	220	4	1.11	0.95	90.9637	-0.3811	0.0000	0.0000;
	137	1	0	0	0	0	1	1.10842817	-2.17012363	220	4	1.11	0.95	90.6913	-0.2730	0.0000	0.0000;
	138	1	0	0	0	0	1	1.03364808	-2.09280846	400	4	1.05	0.95	91.1815	-0.2233	0.0000	0.0000;
	139	1	0	0	0	0	1	1.03366815	-2.09547876	400	4	1.05	0.95	91.1827	-0.2235	0.0000	0.0000;
	140	1	0	0	0	0	1	1.10182129	-6.91823431	220	4	1.11	0.95	93.8702	-0.1925	0.0000	0.0000;
	141	1	0	0	0	0	1	1.09365824	-6.09447949	220	4	1.11	0.95	94.2789	0.0242	0.0000	0.0000;
	142	1	0	0	0	0	1	1.09365824	-6.09447949	220	4	1.11	0.95	94.2789	0.0242	0.0000	0.0000;
	143	1	0	0	0	0	1	1.10247589	-5.92541664	220	4	1.11	0.95	93.6092	-0.4728	0.0000	0.0000;
	144	1	0	0	0	0	1	1.10641799	-3.29898813	220	4	1.11	0.95	91.1583	-0.2224	0.0000	0.0000;
	145	1	0	0	0	0	1	1.10641799	-3.29898813	220	4	1.11	0.95	91.1583	-0.2224	0.0000	0.0000;
	146	1	7.636	13.257	0	0	1	1.09956097	-3.71266893	220	4	1.11	0.95	91.9131	0.0150	0.0000	0.0000;
	147	1	0	0	0	0	1	1.09962379	-3.71068879	220	4	1.11	0.95	91.9110	0.0144	0.0000	0.0000;
	148	2	10.87	14.867	0	0	1	1.09637398	-5.25098023	220	4	1.11	0.95	93.8268	-0.0078	0.0000	0.0000;
	149	1	0	0	0	0	1	1.09645551	-5.2627219	220	4	1.11	0.95	93.8333	-0.0090	0.0000	0.0000;
	150	2	10.989	15	0	0	1	1.03393381	-7.99694686	400	4	1.05	0.95	94.4682	-0.0000	0.0000	0.0000;
	151	2	20.672	21.479	0	0	1	1.03392466	-7.99441734	400	4	1.05	0.95	94.4673	-0.0003	0.0000	0.0000;
	152	1	0	0	0	0	1	1.09840622	-6.56475884	220	4	1.11	0.95	93.8999	-0.2177	0.0000	0.0000;
	153	1	0	0	0	0	1	1.10775397	-4.22089196	220	4	1.11	0.95	92.2893	-0.9854	0.0000	0.0000;
	154	1	0	0	0	0	1	1.10775539	-4.22335667	220	4	1.11	0.95	92.2902	-0.9818	0.0000	0.0000;
	155	2	0	0	0	0	1	1.10551624	-0.789212418	220	4	1.11	0.95	90.1686	-0.0445	0.0000	0.0000;
	156	2	13.87	33	0	0	1	1.10552981	-0.7834175	220	4	1.11	0.95	90.1678	-0.0451	0.0000	0.0000;
	157	1	0	0	0	0	1	1.02100529	0.0995624169	400	4	1.05	0.95	90.2515	-0.0038	0.0000	0.0000;
	158	2	9.989	25	0	0	1	1.02096952	0.104146638	400	4	1.05	0.95	90.2499	-0.0032	0.0000	0.0000;
	159	1	0	0	0	0	1	1.09817655	-6.09395857	220	4	1.11	0.95	94.2255	-0.0434	0.0000	0.0000;
	160	1	0	0	0	0	1	1.09817655	-6.09395857	220	4	1.11	0.95	94.2255	-0.0434	0.0000	0.0000;
	161	1	0	0	0	0	1	1.03812778	-2.74096184	400	4	1.05	0.95	91.4143	-0.2793	0.0000	0.0000;
	162	1	0	0	0	0	1	1.03812884	-2.23013486	400	4	1.05	0.95	91.2203	-0.2666	0.0000	0.0000;
	163	1	0	0	0	0	1	1.03812752	-2.22973002	400	4	1.05	0.95	91.2202	-0.2667	0.0000	0.0000;
	164	2	11.664	11	0	0	1	1.10106797	-3.79933011	220	4	1.11	0.95	91.9353	0.0000	0.0000	0.0000;
	165	2	11.564	10.667	0	0	1	1.10108377	-3.81319562	220	4	1.11	0.95	91.9425	0.0000	0.0000	0.0000;
	166	1	0	0	0	0	1	1.10108377	-3.81319562	220	4	1.11	0.95	91.9425	0.0000	0.0000	0.0000;
	167	1	0	0	0	0	1	1.10752003	-11.0133186	220	4	1.11	0.95	96.2129	-0.3550	0.0000	0.0000;
	168	1	0	0	0	0	1	1.09296752	-6.15279346	220	4	1.11	0.95	94.3032	0.0424	0.0000	0.0000;
	169	1	0	0	0	0	1	1.1078635	-7.56072373	220	4	1.11	0.95	94.2951	-0.3591	0.0000	0.0000;
	170	1	0	0	0	0	1	1.10786443	-7.56659307	220	4	1.11	0.95	94.2972	-0.3592	0.0000	0.0000;
	171	1	0	0	0	0	1	1.02739346	-7.88102953	400	4	1.05	0.95	94.3677	-0.2580	0.0000	0.0000;
	172	1	0	0	0	0	1	1.02739346	-7.88102953	400	4	1.05	0.95	94.3677	-0.2580	0.0000	0.0000;
	173	1	0	0	0	0	1	1.09726038	-4.76722993	220	4	1.11	0.95	92.7717	-0.1589	0.0000	0.0000;
	174	1	0	0	0	0	1	1.09727291	-4.7650302	220	4	1.11	0.95	92.7710	-0.1583	0.0000	0.0000;
	175	1	0	0	0	0	1	1.09396773	-5.76829554	220	4	1.11	0.95	92.6788	-0.0641	0.0000	0.0000;
	176	1	0	0	0	0	1	1.10867094	-2.73944631	220	4	1.11	0.95	90.9965	-0.3951	0.0000	0.0000;
	177	1	0	0	0	0	1	1.10867862	-2.73832892	220	4	1.11	0.95	90.9968	-0.3964	0.0000	0.0000;
	178	1	0	0	0	0	1	1.11	-2.94996899	220	4	1.11	0.95	91.1271	-0.6888	735.8511	0.0000;
	179	1	0	0	0	0	1	1.11	-2.94996899	220	4	1.11	0.95	91.1270	-0.6902	735.8511	0.0000;
	180	2	3.13	1.5	0	0	1	1.11	-3.31289482	220	4	1.11	0.95	91.8685	-1.4638	3217.2740	0.0000;
	181	1	0	0	0	0	1	1.09767668	-5.05130972	220	4	1.11	0.95	92.8482	-0.3246	0.0000	0.0000;
	182	1	0	0	0	0	1	1.09296525	-10.2568107	220	5	1.11	0.95	95.3721	0.0219	0.0000	0.0000;
	183	1	0	0	0	0	1	1.10125139	-14.2657711	220	5	1.11	0.95	96.9199	-0.0372	0.0000	0.0000;
	184	1	0	0	0	0	1	1.03509697	-13.8811431	400	5	1.05	0.95	96.6850	0.0116	0.0000	0.0000;
	185	1	0	0	0	0	1	1.03511055	-13.8726218	400	5	1.05	0.95	96.6813	0.0116	0.0000	0.0000;
	186	1	0	0	0	0	1	1.03630578	-16.7672934	400	5	1.05	0.95	97.8480	-0.0438	0.0000	0.0000;
	187	1	0	0	0	0	1	1.03632878	-16.7717659	400	5	1.05	0.95	97.8503	-0.0442	0.0000	0.0000;
	188	1	0	0	0	0	1	1.10088306	-15.5564155	220	5	1.11	0.95	98.0367	-0.0522	0.0000	0.0000;
	189	1	0	0	0	0	1	1.10090572	-15.5577438	220	5	1.11	0.95	98.0370	-0.0527	0.0000	0.0000;
	190	1	0	0	0	0	1	1.0998252	-10.8900458	220	5	1.11	0.95	96.0886	-0.0443	0.0000	0.0000;
	191	1	0	0	0	0	1	1.09980484	-10.8940081	220	5	1.11	0.95	96.0891	-0.0443	0.0000	0.0000;
	192	1	0	0	0	0	1	1.02566462	-12.7112252	400	5	1.05	0.95	96.0038	0.0942	0.0000	0.0000;
	193	1	0	0	0	0	1	1.09343748	-9.82025435	220	5	1.11	0.95	95.2913	0.0362	0.0000	0.0000;
	194	1	0	0	0	0	1	1.09343509	-9.81585205	220	5	1.11	0.95	95.2912	0.0361	0.0000	0.0000;
	195	1	0	0	0	0	1	1.04343054	-16.5350513	400	5	1.05	0.95	97.9813	-0.1267	0.0000	0.0000;
	196	1	0	0	0	0	1	1.04342714	-16.5343495	400	5	1.05	0.95	97.9816	-0.1266	0.0000	0.0000;
	197	1	0	0	0	0	1	1.07143543	-13.5752762	220	5	1.11	0.95	97.5231	-0.0378	0.0000	0.0000;
	198	1	0	0	0	0	1	1.0714218	-13.5749401	220	5	1.11	0.95	97.5218	-0.0378	0.0000	0.0000;
	199	1	0	0	0	-117	1	1.02691753	-15.7786771	400	5	1.05	0.95	97.3873	0.1130	0.0000	0.0000;
	200	1	0	0	0	0	1	1.02696313	-15.7710079	400	5	1.05	0.95	97.3841	0.1124	0.0000	0.0000;
...
];

%% generator data
%	bus	Pg	Qg	Qmax	Qmin	Vg	mBase	status	Pmax	Pmin	Pc1	Pc2	Qc1min	Qc1max	Qc2min	Qc2max	ramp_agc	ramp_10	ramp_30	ramp_q	apf	mu_Pmax	mu_Pmin	mu_Qmax	mu_Qmin
mpc.gen = [
	17	0	0	120	-22	1.07567	241.9	0	210	140	0	0	0	0	0	0	0	0	0	0	0	0.0000	0.0000	0.0000	0.0000;
	17	0	0	120	-22	1.07567	233.2	0	200	140	0	0	0	0	0	0	0	0	0	0	0	0.0000	0.0000	0.0000	0.0000;
	26	370	2.94540542	190	-19	1.10841333	415.9	1	370	290	0	0	0	0	0	0	0	0	0	0	0	13.1740	0.0000	0.0000	0.0000;
	27	360	-18.9999786	190	-19	1.10753428	407.1	1	360	290	0	0	0	0	0	0	0	0	0	0	0	13.7202	0.0000	0.0000	0.0642;
	27	0	0	190	-19	1.08827	407.1	0	360	290	0	0	0	0	0	0	0	0	0	0	0	0.0000	0.0000	0.0000	0.0000;
	27	0	0	190	-19	1.08827	415.9	0	370	290	0	0	0	0	0	0	0	0	0	0	0	0.0000	0.0000	0.0000	0.0000;
	26	370	2.94540542	190	-19	1.10841333	415.9	1	370	290	0	0	0	0	0	0	0	0	0	0	0	13.1740	0.0000	0.0000	0.0000;
	28	370	-18.9999819	190	-19	1.04498289	415.9	1	370	290	0	0	0	0	0	0	0	0	0	0	0	14.0770	0.0000	0.0000	0.0800;
	28	0	0	190	-19	1.027	415.9	0	370	290	0	0	0	0	0	0	0	0	0	0	0	0.0000	0.0000	0.0000	0.0000;
	28	0	0	190	-19	1.027	415.9	0	370	290	0	0	0	0	0	0	0	0	0	0	0	0.0000	0.0000	0.0000	0.0000;
	29	0	0	190	-19	1.027	415.9	0	370	290	0	0	0	0	0	0	0	0	0	0	0	0.0000	0.0000	0.0000	0.0000;
	29	370	-18.9999819	190	-19	1.04497609	415.9	1	370	290	0	0	0	0	0	0	0	0	0	0	0	14.0743	0.0000	0.0000	0.0800;
	29	370	-18.9999819	190	-19	1.04497609	415.9	1	370	290	0	0	0	0	0	0	0	0	0	0	0	14.0743	0.0000	0.0000	0.0800;
	42	130	-33.9999988	135	-34	1.08432732	253.9	1	215	130	0	0	0	0	0	0	0	0	0	0	0	0.0000	10.3396	0.0000	1.1994;
	42	0	0	130	-34	1.09086	242.7	0	205	135	0	0	0	0	0	0	0	0	0	0	0	0.0000	0.0000	0.0000	0.0000;
	42	0	0	145	-34	1.09086	267.7	0	225	110	0	0	0	0	0	0	0	0	0	0	0	0.0000	0.0000	0.0000	0.0000;
	43	0	0	145	-34	1.09091	267.7	0	225	120	0	0	0	0	0	0	0	0	0	0	0	0.0000	0.0000	0.0000	0.0000;
	43	130	-33.9999988	145	-34	1.08435769	267.7	1	225	130	0	0	0	0	0	0	0	0	0	0	0	0.0000	10.3423	0.0000	1.2028;
	43	0	0	130	-34	1.09091	242.7	0	205	135	0	0	0	0	0	0	0	0	0	0	0	0.0000	0.0000	0.0000	0.0000;
	44	255	-46.9999988	363	-47	1.04948652	646.5	1	535	255	0	0	0	0	0	0	0	0	0	0	0	0.0000	10.0868	0.0000	1.1588;
	44	0	0	348	-100	1.04817	659.3	0	560	250	0	0	0	0	0	0	0	0	0	0	0	0.0000	0.0000	0.0000	0.0000;
	54	0	0	104	-1	1.09127	247.9	0	225	129	0	0	0	0	0	0	0	0	0	0	0	0.0000	0.0000	0.0000	0.0000;
	55	129	-15.999999	130	-16	1.09774462	259.9	1	225	129	0	0	0	0	0	0	0	0	0	0	0	0.0000	13.5523	0.0000	1.3775;
	54	0	0	130	-16	1.09127	259.9	0	225	129	0	0	0	0	0	0	0	0	0	0	0	0.0000	0.0000	0.0000	0.0000;
	56	129	-15.9999987	130	-16	1.04594381	259.9	1	225	129	0	0	0	0	0	0	0	0	0	0	0	0.0000	13.3151	0.0000	1.1069;
	57	129	-15.9999987	130	-16	1.04592721	259.9	1	225	129	0	0	0	0	0	0	0	0	0	0	0	0.0000	13.3137	0.0000	1.1067;
	57	0	0	104	-1	1.03932	247.9	0	225	129	0	0	0	0	0	0	0	0	0	0	0	0.0000	0.0000	0.0000	0.0000;
	57	0	0	130	-16	1.03932	259.9	0	225	129	0	0	0	0	0	0	0	0	0	0	0	0.0000	0.0000	0.0000	0.0000;
	58	39.7	6.99070857e-07	30	0	1.09017111	57.7	1	39.7	39.7	0	0	0	0	0	0	0	0	0	0	0	91.6228	0.0000	0.0000	1.9772;
	78	140	13.4123001	123	-15	1.08788443	256.4	1	225	140	0	0	0	0	0	0	0	0	0	0	0	0.0000	3.3252	0.0000	0.0000;
	78	140	13.4123001	123	-15	1.08788443	256.4	1	225	140	0	0	0	0	0	0	0	0	0	0	0	0.0000	3.3252	0.0000	0.0000;
	79	0	0	123	-15	1.07077	252	0	220	140	0	0	0	0	0	0	0	0	0	0	0	0.0000	0.0000	0.0000	0.0000;
	79	0	0	123	-15	1.07077	256.4	0	225	140	0	0	0	0	0	0	0	0	0	0	0	0.0000	0.0000	0.0000	0.0000;
	79	140	-14.9999726	123	-15	1.08838353	256.4	1	225	140	0	0	0	0	0	0	0	0	0	0	0	0.0000	3.0279	0.0000	0.0435;
	82	379.999998	-30.999992	232	-31	1.03880555	445.2	1	380	220	0	0	0	0	0	0	0	0	0	0	0	0.7368	0.0000	0.0000	0.1735;
	82	0	0	228	-30	1.0186	434.6	0	370	220	0	0	0	0	0	0	0	0	0	0	0	0.0000	0.0000	0.0000	0.0000;
	98	8.998	1.0152952e-05	1	0	1.09119547	12	1	8.998	8.998	0	0	0	0	0	0	0	0	0	0	0	92.1227	0.0000	0.0000	0.1392;
	98	5.998	1.0152952e-05	1	0	1.09119547	6.1	1	5.998	5.998	0	0	0	0	0	0	0	0	0	0	0	92.1227	0.0000	0.0000	0.1392;
	104	134.000002	78.3683041	123	-15	1.09241883	256.4	1	225	134	0	0	0	0	0	0	0	0	0	0	0	0.0000	0.6801	0.0000	0.0000;
	105	0	0	123	-15	1.06917	256.4	0	225	134	0	0	0	0	0	0	0	0	0	0	0	0.0000	0.0000	0.0000	0.0000;
	106	79.0000006	3.34094003	80	-2	1.09021237	144.2	1	120	79	0	0	0	0	0	0	0	0	0	0	0	0.0000	2.3262	0.0000	0.0000;
	107	0	0	80	-2	1.0684	144.2	0	120	79	0	0	0	0	0	0	0	0	0	0	0	0.0000	0.0000	0.0000	0.0000;
	116	0	0	90	-20	1.07086	150	0	120	90	0	0	0	0	0	0	0	0	0	0	0	0.0000	0.0000	0.0000	0.0000;
	117	70.0000003	-1.99998541	82	-2	1.08923153	145.3	1	120	70	0	0	0	0	0	0	0	0	0	0	0	0.0000	4.9781	0.0000	0.0884;
	118	0	0	40	0	1.07063	117	0	110	80	0	0	0	0	0	0	0	0	0	0	0	0.0000	0.0000	0.0000	0.0000;
	125	0	0	135	-35	1.0744	253.9	0	215	160	0	0	0	0	0	0	0	0	0	0	0	0.0000	0.0000	0.0000	0.0000;
	126	0	0	140	-35	1.07421	265	0	225	140	0	0	0	0	0	0	0	0	0	0	0	0.0000	0.0000	0.0000	0.0000;
	126	214.999996	-34.9999747	135	-35	1.09785256	253.9	1	215	160	0	0	0	0	0	0	0	0	0	0	0	0.3616	0.0000	0.0000	0.0507;
	127	224.999987	-39.9999891	140	-40	1.03152188	265	1	225	140	0	0	0	0	0	0	0	0	0	0	0	0.1098	0.0000	0.0000	0.1117;
	127	0	0	137	-40	1.01239	259.2	0	220	160	0	0	0	0	0	0	0	0	0	0	0	0.0000	0.0000	0.0000	0.0000;
	132	0	16.8603935	40	-38	1.0806527	131.2	1	0	0	0	0	0	0	0	0	0	0	0	0	0	94.3239	0.0000	0.0000	0.0000;
	132	0	0	40	-38	1.06355	131.2	0	0	0	0	0	0	0	0	0	0	0	0	0	0	0.0000	0.0000	0.0000	0.0000;
	133	0	0	40	-38	1.06355	131.2	0	0	0	0	0	0	0	0	0	0	0	0	0	0	0.0000	0.0000	0.0000	0.0000;
	133	0	13.9352552	40	-38	1.08065153	131.2	1	0	0	0	0	0	0	0	0	0	0	0	0	0	94.3257	0.0000	0.0000	0.0000;
	134	0	0	90	0	1.0664	150	0	120	100	0	0	0	0	0	0	0	0	0	0	0	0.0000	0.0000	0.0000	0.0000;
	134	0	0	90	0	1.0664	150	0	120	100	0	0	0	0	0	0	0	0	0	0	0	0.0000	0.0000	0.0000	0.0000;
	135	100.000001	25.8818345	90	0	1.10145854	150	1	120	100	0	0	0	0	0	0	0	0	0	0	0	0.0000	1.1953	0.0000	0.0000;
	146	0	0	12	0	1.05776	51.4	0	50	30	0	0	0	0	0	0	0	0	0	0	0	0.0000	0.0000	0.0000	0.0000;
	146	0	0	12	0	1.05776	51.4	0	50	30	0	0	0	0	0	0	0	0	0	0	0	0.0000	0.0000	0.0000	0.0000;
	147	0	0	90	0	1.05781	150	0	120	90	0	0	0	0	0	0	0	0	0	0	0	0.0000	0.0000	0.0000	0.0000;
	148	0	0	149	-48	1.09091	267.4	0	222	90	0	0	0	0	0	0	0	0	0	0	0	0.0000	0.0000	0.0000	0.0000;
	148	0	0	149	-48	1.09091	253.4	0	205	135	0	0	0	0	0	0	0	0	0	0	0	0.0000	0.0000	0.0000	0.0000;
	148	0	0	149	-48	1.09091	253.4	0	205	135	0	0	0	0	0	0	0	0	0	0	0	0.0000	0.0000	0.0000	0.0000;
	148	90.0000001	-47.9998079	149	-48	1.09637398	267.4	1	222	90	0	0	0	0	0	0	0	0	0	0	0	0.0000	22.1832	0.0000	0.0078;
	150	90.0000001	34.8087948	123	-23	1.03393381	253.8	1	222	90	0	0	0	0	0	0	0	0	0	0	0	0.0000	21.5418	0.0000	0.0000;
	151	90.0000001	-47.9939527	149	-48	1.03392466	267.4	1	222	90	0	0	0	0	0	0	0	0	0	0	0	0.0000	21.5427	0.0000	0.0000;
	151	0	0	123	-23	1.01688	253.8	0	222	90	0	0	0	0	0	0	0	0	0	0	0	0.0000	0.0000	0.0000	0.0000;
	155	94.0000002	-52.9999709	149	-53	1.10551624	278.3	1	235	94	0	0	0	0	0	0	0	0	0	0	0	0.0000	8.6714	0.0000	0.0445;
	155	0	0	149	-53	1.08864	278.3	0	235	94	0	0	0	0	0	0	0	0	0	0	0	0.0000	0.0000	0.0000	0.0000;
	155	0	0	120	0	1.08864	287.3	0	261	104	0	0	0	0	0	0	0	0	0	0	0	0.0000	0.0000	0.0000	0.0000;
	155	0	0	132	-40	1.08864	292.5	0	261	104	0	0	0	0	0	0	0	0	0	0	0	0.0000	0.0000	0.0000	0.0000;
	156	0	0	120	0	1.08864	287.3	0	261	104	0	0	0	0	0	0	0	0	0	0	0	0.0000	0.0000	0.0000	0.0000;
	156	130	-21.999971	117	-22	1.10552981	236	1	205	130	0	0	0	0	0	0	0	0	0	0	0	0.0000	8.6722	0.0000	0.0451;
	156	120	-19.999971	109	-20	1.10552981	233.1	1	206	120	0	0	0	0	0	0	0	0	0	0	0	0.0000	8.6722	0.0000	0.0451;
	156	0	0	109	-20	1.08864	233.1	0	206	120	0	0	0	0	0	0	0	0	0	0	0	0.0000	0.0000	0.0000	0.0000;
	158	120	-19.9995618	109	-20	1.02096952	233.1	1	206	120	0	0	0	0	0	0	0	0	0	0	0	0.0000	8.5901	0.0000	0.0032;
	164	0	0	104	-23	1.05768	225.4	0	200	150	0	0	0	0	0	0	0	0	0	0	0	0.0000	0.0000	0.0000	0.0000;
	164	199.999999	68.7697086	104	-23	1.10106797	225.4	1	200	150	0	0	0	0	0	0	0	0	0	0	0	2.7153	0.0000	0.0000	0.0000;
	165	199.999999	63.2666932	104	-23	1.10108377	225.4	1	200	150	0	0	0	0	0	0	0	0	0	0	0	2.7225	0.0000	0.0000	0.0000;
	165	0	0	104	-23	1.05768	225.4	0	200	150	0	0	0	0	0	0	0	0	0	0	0	0.0000	0.0000	0.0000	0.0000;
	180	120	1.01725246e-06	110	0	1.11	219.5	1	120	120	0	0	0	0	0	0	0	0	0	0	0	91.8685	0.0000	0.0000	1.4638;
	205	0	11.4406008	80	-30.001	1.03216802	196.1	1	0	0	0	0	0	0	0	0	0	0	0	0	0	98.1224	0.0000	0.0000	0.0000;
	205	0	11.4406008	80	-30.001	1.03216802	196.1	1	0	0	0	0	0	0	0	0	0	0	0	0	0	98.1224	0.0000	0.0000	0.0000;
	205	0	0	110	-60	0.98664	210.1	0	0	0	0	0	0	0	0	0	0	0	0	0	0	0.0000	0.0000	0.0000	0.0000;
	206	0	0	110	-60	0.98669	210.1	0	0	0	0	0	0	0	0	0	0	0	0	0	0	0.0000	0.0000	0.0000	0.0000;
	215	23	1.66609637e-06	20	0	1.08048469	58.5	1	23	23	0	0	0	0	0	0	0	0	0	0	0	93.5787	0.0000	0.0000	0.9251;
	215	0	0	20	0	1.09091	53.9	0	0	0	0	0	0	0	0	0	0	0	0	0	0	0.0000	0.0000	0.0000	0.0000;
	215	0	0	20	0	1.09091	53.9	0	0	0	0	0	0	0	0	0	0	0	0	0	0	0.0000	0.0000	0.0000	0.0000;
	215	7	1.66609637e-06	20	0	1.08048469	30.5	1	7	7	0	0	0	0	0	0	0	0	0	0	0	93.5787	0.0000	0.0000	0.9251;
	221	1.55	6.4030024e-06	1	0	1.11045282	2.3	1	1.55	1.55	0	0	0	0	0	0	0	0	0	0	0	91.8038	0.0000	0.0000	0.2339;
	222	1.55	0.271205489	1	0	1.09951511	2.3	1	1.55	1.55	0	0	0	0	0	0	0	0	0	0	0	91.9287	0.0000	0.0000	0.0000;
	240	6.3	4.50330155	6	0	1.05886588	9.8	1	6.3	6.3	0	0	0	0	0	0	0	0	0	0	0	95.2496	0.0000	0.0000	0.0000;
	247	370	-15.2855594	190	-19	1.04692297	415.9	1	370	290	0	0	0	0	0	0	0	0	0	0	0	13.5133	0.0000	0.0000	0.0000;
	310	0	0	7	0	1.07912	27.9	0	0	0	0	0	0	0	0	0	0	0	0	0	0	0.0000	0.0000	0.0000	0.0000;
	310	0	0	7	0	1.07912	27.9	0	0	0	0	0	0	0	0	0	0	0	0	0	0	0.0000	0.0000	0.0000	0.0000;
	310	11	6.99996938	7	4	1.10653913	30.8	1	11	11	0	0	0	0	0	0	0	0	0	0	0	90.8827	0.0000	0.0518	0.0000;
	310	0	0	7	0	1.07912	27.9	0	0	0	0	0	0	0	0	0	0	0	0	0	0	0.0000	0.0000	0.0000	0.0000;
	310	0	0	6	0	1.07912	27.7	0	0	0	0	0	0	0	0	0	0	0	0	0	0	0.0000	0.0000	0.0000	0.0000;
	310	0	0	7	0	1.07912	27.9	0	0	0	0	0	0	0	0	0	0	0	0	0	0	0.0000	0.0000	0.0000	0.0000;
	310	0	0	7	0	1.07912	27.9	0	0	0	0	0	0	0	0	0	0	0	0	0	0	0.0000	0.0000	0.0000	0.0000;
	311	0	0	15	0	1.07689	36.7	0	0	0	0	0	0	0	0	0	0	0	0	0	0	0.0000	0.0000	0.0000	0.0000;
	311	0	0	15	0	1.07689	57	0	0	0	0	0	0	0	0	0	0	0	0	0	0	0.0000	0.0000	0.0000	0.0000;
	312	16	11.4904889	15	0	1.10435291	36.7	1	16	16	0	0	0	0	0	0	0	0	0	0	0	91.4026	0.0000	0.0000	0.0000;
	312	0	0	15	0	1.07487	57	0	0	0	0	0	0	0	0	0	0	0	0	0	0	0.0000	0.0000	0.0000	0.0000;
	314	25	5.70513004	20	0	1.11057347	53.9	1	25	25	0	0	0	0	0	0	0	0	0	0	0	90.5996	0.0000	0.0000	0.0000;
	314	0	0	20	0	1.08518	53.9	0	0	0	0	0	0	0	0	0	0	0	0	0	0	0.0000	0.0000	0.0000	0.0000;
	315	0	0	40	0	1.07925	107.7	0	0	0	0	0	0	0	0	0	0	0	0	0	0	0.0000	0.0000	0.0000	0.0000;
	323	2.5	2.99980348	3	0	1.10997611	4.1	1	2.5	2.5	0	0	0	0	0	0	0	0	0	0	0	90.6681	0.0000	0.0090	0.0000;
	366	40	6.5159162	12	0	1.07288318	47.8	1	40	40	0	0	0	0	0	0	0	0	0	0	0	93.8700	0.0000	0.0000	0.0000;
	367	40	5.70697502	12	0	1.06915612	47.8	1	40	40	0	0	0	0	0	0	0	0	0	0	0	93.3518	0.0000	0.0000	0.0000;
	368	40	5.39221935	12	0	1.07582397	47.8	1	40	40	0	0	0	0	0	0	0	0	0	0	0	93.7097	0.0000	0.0000	0.0000;
	369	40	0.0442144303	12	0	1.07261259	47.8	1	40	40	0	0	0	0	0	0	0	0	0	0	0	93.2438	0.0000	0.0000	0.0025;
	386	140	-45.3238537	138	-47	1.06841442	251.3	1	210	140	0	0	0	0	0	0	0	0	0	0	0	0.0000	18.7318	0.0000	0.0000;
	386	0	0	10	0	1.08555	26.9	0	25	12	0	0	0	0	0	0	0	0	0	0	0	0.0000	0.0000	0.0000	0.0000;
	387	10.0000001	1.05694173e-05	10	0	1.06565127	19.7	1	17	10	0	0	0	0	0	0	0	0	0	0	0	0.0000	17.3602	0.0000	0.1531;
	444	1.5	1.53907838	2	0	1.05672173	3.6	1	1.5	1.5	0	0	0	0	0	0	0	0	0	0	0	90.2426	0.0000	0.0000	0.0000;
	453	5.21	3.53327751e-06	2	0	1.06898368	6.1	1	5.21	5.21	0	0	0	0	0	0	0	0	0	0	0	92.3726	0.0000	0.0000	0.3765;
	453	0	0	2	0	1.0809	6.1	0	0	0	0	0	0	0	0	0	0	0	0	0	0	0.0000	0.0000	0.0000	0.0000;
	486	1.4	0.699818939	0.7	0	1.04964443	1.7	1	1.4	1.4	0	0	0	0	0	0	0	0	0	0	0	91.1208	0.0000	0.0187	0.0000;
	537	25	1.57708734e-05	14	0	1.06285393	53.9	1	25	25	0	0	0	0	0	0	0	0	0	0	0	94.0227	0.0000	0.0000	0.0933;
	537	0	0	14	0	1.06135	34.9	0	0	0	0	0	0	0	0	0	0	0	0	0	0	0.0000	0.0000	0.0000	0.0000;
	537	0	0	14	0	1.06135	34	0	0	0	0	0	0	0	0	0	0	0	0	0	0	0.0000	0.0000	0.0000	0.0000;
	537	0	0	14	0	1.06135	105.9	0	0	0	0	0	0	0	0	0	0	0	0	0	0	0.0000	0.0000	0.0000	0.0000;
	537	0	0	14	0	1.06135	105.9	0	0	0	0	0	0	0	0	0	0	0	0	0	0	0.0000	0.0000	0.0000	0.0000;
	538	20	2.22662388e-05	17.5	0	1.06188694	36.5	1	20	20	0	0	0	0	0	0	0	0	0	0	0	93.8289	0.0000	0.0000	0.0664;
	538	20	2.22662388e-05	17.5	0	1.06188694	35.6	1	20	20	0	0	0	0	0	0	0	0	0	0	0	93.8289	0.0000	0.0000	0.0664;
	538	0	0	17.5	0	1.06273	126.2	0	0	0	0	0	0	0	0	0	0	0	0	0	0	0.0000	0.0000	0.0000	0.0000;
	538	0	0	17.5	0	1.06273	106.4	0	0	0	0	0	0	0	0	0	0	0	0	0	0	0.0000	0.0000	0.0000	0.0000;
	552	1.4	0.699852632	0.7	0	1.05795032	1.7	1	1.4	1.4	0	0	0	0	0	0	0	0	0	0	0	94.5872	0.0000	0.0141	0.0000;
	560	22.5	3.23371911	10	0	1.059587	35.4	1	22.5	22.5	0	0	0	0	0	0	0	0	0	0	0	94.3534	0.0000	0.0000	0.0000;
	560	0	0	5	0	1.05752	28.4	0	0	0	0	0	0	0	0	0	0	0	0	0	0	0.0000	0.0000	0.0000	0.0000;
	560	0	0	5	0	1.05752	26.5	0	0	0	0	0	0	0	0	0	0	0	0	0	0	0.0000	0.0000	0.0000	0.0000;
	560	0	0	5	0	1.05752	30.4	0	0	0	0	0	0	0	0	0	0	0	0	0	0	0.0000	0.0000	0.0000	0.0000;
	560	0	0	5	0	1.05752	34.4	0	0	0	0	0	0	0	0	0	0	0	0	0	0	0.0000	0.0000	0.0000	0.0000;
	561	22.5	2.44291057e-05	10	0	1.06012074	35.4	1	22.5	22.5	0	0	0	0	0	0	0	0	0	0	0	94.1712	0.0000	0.0000	0.0606;
	561	0	0	5	0	1.0595	34.4	0	0	0	0	0	0	0	0	0	0	0	0	0	0	0.0000	0.0000	0.0000	0.0000;
	561	0	0	5	0	1.0595	26.5	0	0	0	0	0	0	0	0	0	0	0	0	0	0	0.0000	0.0000	0.0000	0.0000;
	561	0	0	5	0	1.0595	34.4	0	0	0	0	0	0	0	0	0	0	0	0	0	0	0.0000	0.0000	0.0000	0.0000;
	574	1	1.17853452	4	0	1.10456688	8.9	1	1	1	0	0	0	0	0	0	0	0	0	0	0	91.4442	0.0000	0.0000	0.0000;
	627	76	7.76226464e-07	30	0	1.094953	97.7	1	76	76	0	0	0	0	0	0	0	0	0	0	0	88.3914	0.0000	0.0000	1.5788;
	627	30	7.76226464e-07	30	0	1.094953	46.8	1	30	30	0	0	0	0	0	0	0	0	0	0	0	88.3914	0.0000	0.0000	1.5788;
	665	130	-33.9999973	145	-34	1.06852651	267.7	1	225	130	0	0	0	0	0	0	0	0	0	0	0	0.0000	11.1127	0.0000	0.5339;
	666	0	0	145	-34	1.09079	267.7	0	225	130	0	0	0	0	0	0	0	0	0	0	0	0.0000	0.0000	0.0000	0.0000;
	686	140	4.72779999e-07	30	0	1.08809444	182.5	1	140	140	0	0	0	0	0	0	0	0	0	0	0	90.0160	0.0000	0.0000	2.8070;
	686	47	4.72779999e-07	30	0	1.08809444	77.5	1	47	47	0	0	0	0	0	0	0	0	0	0	0	90.0160	0.0000	0.0000	2.8070;
	692	1.98	4.6560018e-07	1	0	1.08752283	2.7	1	1.98	1.98	0	0	0	0	0	0	0	0	0	0	0	90.7230	0.0000	0.0000	2.7410;
	717	1.32	8.41371824e-07	1.3	0	1.0863945	10.1	1	1.32	1.32	0	0	0	0	0	0	0	0	0	0	0	91.7056	0.0000	0.0000	1.5602;
	741	129	-15.9999991	130	-16	1.09576822	259.9	1	225	129	0	0	0	0	0	0	0	0	0	0	0	0.0000	14.4459	0.0000	1.6144;
	764	82	1.2188418e-06	30	0	1.07628154	105.4	1	82	82	0	0	0	0	0	0	0	0	0	0	0	91.3258	0.0000	0.0000	1.0908;
	793	1	1.21784777e-06	0.5	0	1.05362281	8.3	1	1	1	0	0	0	0	0	0	0	0	0	0	0	93.8369	0.0000	0.0000	1.0692;
	797	0	0	23	0	1.0493	71.9	0	0	0	0	0	0	0	0	0	0	0	0	0	0	0.0000	0.0000	0.0000	0.0000;
	797	0	0	23	0	1.0493	71.9	0	0	0	0	0	0	0	0	0	0	0	0	0	0	0.0000	0.0000	0.0000	0.0000;
	797	0	0	11	0	1.0493	32.9	0	0	0	0	0	0	0	0	0	0	0	0	0	0	0.0000	0.0000	0.0000	0.0000;
	797	0	0	10	0	1.0493	32.6	0	0	0	0	0	0	0	0	0	0	0	0	0	0	0.0000	0.0000	0.0000	0.0000;
	808	0	0	10	0	1.07568	125.4	0	125	84	0	0	0	0	0	0	0	0	0	0	0	0.0000	0.0000	0.0000	0.0000;
	809	92.0000001	7.26110847e-07	10	0	1.09300148	125.4	1	125	92	0	0	0	0	0	0	0	0	0	0	0	0.0000	22.7156	0.0000	1.7275;
	846	14.996	1.70665706e-06	8.1	0	1.08018545	33	1	14.996	14.996	0	0	0	0	0	0	0	0	0	0	0	92.4096	0.0000	0.0000	0.7657;
	846	14.996	1.70665706e-06	8.1	0	1.08018545	33	1	14.996	14.996	0	0	0	0	0	0	0	0	0	0	0	92.4096	0.0000	0.0000	0.7657;
	846	0	0	0	0	1.07424	19	0	0	0	0	0	0	0	0	0	0	0	0	0	0	0.0000	0.0000	0.0000	0.0000;
	846	0	0	0	0	1.07424	19	0	0	0	0	0	0	0	0	0	0	0	0	0	0	0.0000	0.0000	0.0000	0.0000;
	878	34.99	5.32628869	41.2	0	1.10637529	87.7	1	34.99	34.99	0	0	0	0	0	0	0	0	0	0	0	91.4219	0.0000	0.0000	0.0000;
	901	0	0	45	-10	1.07665	65.8	0	0	0	0	0	0	0	0	0	0	0	0	0	0	0.0000	0.0000	0.0000	0.0000;
	901	44.988	-8.09293412	45	-10	1.09997578	71.1	1	44.988	44.988	0	0	0	0	0	0	0	0	0	0	0	91.2333	0.0000	0.0000	0.0000;
	901	0	0	45	-10	1.07665	71.1	0	0	0	0	0	0	0	0	0	0	0	0	0	0	0.0000	0.0000	0.0000	0.0000;
	976	0	0	110	-40	1.08472	162.2	0	0	0	0	0	0	0	0	0	0	0	0	0	0	0.0000	0.0000	0.0000	0.0000;
	977	99.973	8.06083438	110	-40	1.11415736	162.2	1	99.973	99.973	0	0	0	0	0	0	0	0	0	0	0	91.2752	0.0000	0.0000	0.0000;
	981	0	0	0	0	1.08908	16.8	0	0	0	0	0	0	0	0	0	0	0	0	0	0	0.0000	0.0000	0.0000	0.0000;
	1002	222.143223	-31.9999847	240	-32	1.10955592	454.5	1	386	220	0	0	0	0	0	0	0	0	0	0	0	0.0000	0.0000	0.0000	0.0960;
	1003	0	0	227	-30	1.08396	434.1	0	370	220	0	0	0	0	0	0	0	0	0	0	0	0.0000	0.0000	0.0000	0.0000;
	1007	5.998	1.44698017	1.447	0	1.11384592	7.1	1	5.998	5.998	0	0	0	0	0	0	0	0	0	0	0	91.5155	0.0000	0.0657	0.0000;
	1006	3.999	0.446978664	0.447	0	1.11385844	4	1	3.999	3.999	0	0	0	0	0	0	0	0	0	0	0	91.5145	0.0000	0.0659	0.0000;
	1007	3.999	0.446978541	0.447	0	1.11384592	5	1	3.999	3.999	0	0	0	0	0	0	0	0	0	0	0	91.5155	0.0000	0.0657	0.0000;
	1007	0	0	0	0	1.08685	6	0	0	0	0	0	0	0	0	0	0	0	0	0	0	0.0000	0.0000	0.0000	0.0000;
	1008	0	0	110	-40	1.08742	174.1	0	0	0	0	0	0	0	0	0	0	0	0	0	0	0.0000	0.0000	0.0000	0.0000;
	1014	14.996	7.2628718e-05	4.8	0	1.10193539	20.6	1	14.996	14.996	0	0	0	0	0	0	0	0	0	0	0	92.3435	0.0000	0.0000	0.0256;
	1014	0	0	0	0	1.08325	12.8	0	0	0	0	0	0	0	0	0	0	0	0	0	0	0.0000	0.0000	0.0000	0.0000;
	1014	0	0	0	0	1.08325	12.5	0	0	0	0	0	0	0	0	0	0	0	0	0	0	0.0000	0.0000	0.0000	0.0000;
	1016	0	0	0	0	1.08029	20	0	0	0	0	0	0	0	0	0	0	0	0	0	0	0.0000	0.0000	0.0000	0.0000;
	1016	0	0	0	0	1.08029	19	0	0	0	0	0	0	0	0	0	0	0	0	0	0	0.0000	0.0000	0.0000	0.0000;
	1025	11.997	17.9998925	18	9	1.09336157	30	1	11.997	11.997	0	0	0	0	0	0	0	0	0	0	0	94.3175	0.0000	0.0133	0.0000;
	1026	0	0	18	9	1.07151	30	0	0	0	0	0	0	0	0	0	0	0	0	0	0	0.0000	0.0000	0.0000	0.0000;
	1027	0	0	14	10.5	1.07147	32.2	0	0	0	0	0	0	0	0	0	0	0	0	0	0	0.0000	0.0000	0.0000	0.0000;
	1114	0	0	37.5	16.8	1.08691	62.5	0	0	0	0	0	0	0	0	0	0	0	0	0	0	0.0000	0.0000	0.0000	0.0000;
	1115	0	0	37.5	7.5	1.0759	62.5	0	0	0	0	0	0	0	0	0	0	0	0	0	0	0.0000	0.0000	0.0000	0.0000;
	1114	39.989	7.50021639	37.5	7.5	1.11072907	62.5	1	39.989	39.989	0	0	0	0	0	0	0	0	0	0	0	91.8739	0.0000	0.0000	0.0134;
	1116	0	0	37.5	16.8	1.08062	62.5	0	0	0	0	0	0	0	0	0	0	0	0	0	0	0.0000	0.0000	0.0000	0.0000;
	1153	16.995	0.000360075308	5.251	0	1.08844879	30.5	1	16.995	16.995	0	0	0	0	0	0	0	0	0	0	0	93.1177	0.0000	0.0000	0.0102;
	1153	0	0	0	0	1.07018	6	0	0	0	0	0	0	0	0	0	0	0	0	0	0	0.0000	0.0000	0.0000	0.0000;
	1154	16.995	0.000289507204	5.251	0	1.08854842	30.5	1	16.995	16.995	0	0	0	0	0	0	0	0	0	0	0	93.1049	0.0000	0.0000	0.0116;
	1154	0	0	0	0	1.07027	25	0	0	0	0	0	0	0	0	0	0	0	0	0	0	0.0000	0.0000	0.0000	0.0000;
	1155	15.996	1.16278309e-05	5.25	0	1.09105347	30.5	1	15.996	15.996	0	0	0	0	0	0	0	0	0	0	0	92.7356	0.0000	0.0000	0.1181;
	1155	0	0	0	0	1.07285	6	0	0	0	0	0	0	0	0	0	0	0	0	0	0	0.0000	0.0000	0.0000	0.0000;
	1180	59.984	15.5871467	52.5	0	1.1051074	87.5	1	59.984	59.984	0	0	0	0	0	0	0	0	0	0	0	91.6166	0.0000	0.0000	0.0000;
	1181	0	0	52.5	0	1.08122	87.5	0	0	0	0	0	0	0	0	0	0	0	0	0	0	0.0000	0.0000	0.0000	0.0000;
	1181	0	0	42	16.8	1.08122	65.3	0	0	0	0	0	0	0	0	0	0	0	0	0	0	0.0000	0.0000	0.0000	0.0000;
	1189	49.986	0	0	0	1.10445182	50	1	49.986	49.986	0	0	0	0	0	0	0	0	0	0	0	91.7311	0.0000	0.0266	0.0000;
	1247	9.997	0.898209409	2	0	1.09719699	16.7	1	9.997	9.997	0	0	0	0	0	0	0	0	0	0	0	91.8509	0.0000	0.0000	0.0000;
	1247	0	0	0	0	1.07484	24	0	0	0	0	0	0	0	0	0	0	0	0	0	0	0.0000	0.0000	0.0000	0.0000;
	1248	0	0	0	0	1.07711	14.6	0	0	0	0	0	0	0	0	0	0	0	0	0	0	0.0000	0.0000	0.0000	0.0000;
	1248	0	0	0	0	1.07711	14.6	0	0	0	0	0	0	0	0	0	0	0	0	0	0	0.0000	0.0000	0.0000	0.0000;
...
];

%% branch data
%	fbus	tbus	r	x	b	rateA	rateB	rateC	ratio	angle	status	angmin	angmax	Pf	Qf	Pt	Qt	mu_Sf	mu_St	mu_angmin	mu_angmax
mpc.branch = [
	7	8	0.00064	0.0305	0	400	400	400	1.0435	-0.6	1	-360	360	-86.5505	-27.6041	86.6000	29.9620	0.0000	0.0000	0.0000	0.0000;
	26	28	0.00036	0.02519	0	500	500	500	1.0911	0	1	-360	360	131.2671	-117.1946	-131.1590	124.7531	0.0000	0.0000	0.0000	0.0000;
	27	29	0.00036	0.02519	0	500	500	500	1.0759	0	1	-360	360	25.9981	-63.9286	-25.9819	65.0608	0.0000	0.0000	0.0000	0.0000;
	39	41	0.00034	0.02097	0	500	500	500	1.0793	0	1	-360	360	-9.4691	-64.1113	9.4827	64.9483	0.0000	0.0000	0.0000	0.0000;
	42	45	0.00034	0.02097	0	500	500	500	1.0296	0	1	-360	360	5.7853	18.2293	-5.7841	-18.1602	0.0000	0.0000	0.0000	0.0000;
	54	56	0.00081	0.03	0	400	400	400	1.0501	0	1	-360	360	9.5865	-2.1403	-9.5858	2.1668	0.0000	0.0000	0.0000	0.0000;
	63	65	0.00015	0.01071	0	1250	1250	1250	0.9673	0	1	-360	360	0.0688	229.7144	-0.0000	-224.8020	0.0000	0.0000	0.0000	0.0000;
	64	65	0.00015	0.01071	0	1250	1250	1250	0.9665	0	0	-360	360	0.0000	0.0000	0.0000	0.0000	0.0000	0.0000	0.0000	0.0000;
	90	92	0.00075	0.02444	-0.00832	330	330	330	1.0474	0	1	-360	360	-103.5467	13.4254	103.6207	-10.0976	0.0000	0.0000	0.0000	0.0000;
	91	93	0.00075	0.02469	-0.008	330	330	330	1.0445	0	1	-360	360	-102.6003	25.8309	102.6758	-22.4622	0.0000	0.0000	0.0000	0.0000;
	125	128	0.0005	0.02875	-0.016	400	400	400	1.1172	0	1	-360	360	-84.9566	-162.9622	85.1328	174.7133	0.0000	0.0000	0.0000	0.0000;
	149	150	0.00064	0.0305	0	400	400	400	1.077	0	1	-360	360	163.5312	-52.4728	-163.3491	61.1526	0.0000	0.0000	0.0000	0.0000;
	155	157	0.000232	0.023	0	500	500	500	1.0887	0	1	-360	360	-70.1561	-23.2934	70.1684	24.5123	0.0000	0.0000	0.0000	0.0000;
	156	158	0.000232	0.023	0	500	500	500	1.0887	0	1	-360	360	-70.0572	-23.0833	70.0694	24.2968	0.0000	0.0000	0.0000	0.0000;
	169	171	0.00035	0.02375	0	500	500	500	1.0894	0	1	-360	360	23.9297	-45.0088	-23.9209	45.6055	0.0000	0.0000	0.0000	0.0000;
	183	184	0.00059	0.030919	0	400	400	400	1.0584	0	1	-360	360	-23.0274	18.6563	23.0322	-18.4055	0.0000	0.0000	0.0000	0.0000;
	190	192	0.0004	0.03	0	500	500	500	1.0855	3.6	1	-360	360	-108.0470	-38.9977	108.0984	42.8537	0.0000	0.0000	0.0000	0.0000;
	2727	157	0.00031	0.00338	0.0992	1386	1386	1386	0	0	1	-360	360	88.1582	-12.0349	-88.1350	1.9469	0.0000	0.0000	0.0000	0.0000;
	2727	158	0.00031	0.00338	0.0992	1386	1386	1386	0	0	1	-360	360	85.8058	-10.7455	-85.7838	0.6441	0.0000	0.0000	0.0000	0.0000;
	2728	68	0.014341	0.083531	0.126034	385	385	385	0	0	1	-360	360	80.0000	-62.8400	-78.7903	55.2012	0.0000	0.0000	0.0000	0.0000;
	2726	76	0.01219	0.070659	0.117418	412	412	412	0	0	1	-360	360	-35.4848	-9.3905	35.6182	-3.4881	0.0000	0.0000	0.0000	0.0000;
	2726	105	0.011781	0.07087	0.116838	412	412	412	0	0	1	-360	360	-148.0152	-1.2645	150.2505	0.9864	0.0000	0.0000	0.0000	0.0000;
	127	2725	0.001525	0.016837	0.50576	1386	1386	1386	0	0	1	-360	360	289.6817	-18.3534	-288.4780	-21.9320	0.0000	0.0000	0.0000	0.0000;
	2729	148	0.001651	0.015909	0.046948	316	316	316	0	0	1	-360	360	91.0249	-4.6424	-90.9112	0.0888	0.0000	0.0000	0.0000	0.0000;
	2729	149	0.001651	0.015909	0.046948	316	316	316	0	0	1	-360	360	92.5091	-5.3399	-92.3917	0.8223	0.0000	0.0000	0.0000	0.0000;
	2730	47	0.00188	0.02287	0.6432	831	831	831	0	0	1	-360	360	-117.7117	-71.2167	117.9828	5.8223	0.0000	0.0000	0.0000	0.0000;
	2730	48	0.00188	0.02287	0.6432	831	831	831	0	0	1	-360	360	-117.3733	-71.2703	117.6431	5.8592	0.0000	0.0000	0.0000	0.0000;
	82	2724	0.002769	0.031162	0.89824	1386	1386	1386	0	0	1	-360	360	189.4520	-42.3243	-188.5300	-43.7340	0.0000	0.0000	0.0000	0.0000;
	42	23	0.01345	0.081141	0.141134	339	339	339	0	0	1	-360	360	82.9085	1.1220	-82.1120	-12.6741	0.0000	0.0000	0.0000	0.0000;
	26	90	0.009091	0.062401	0.111417	453	453	453	0	0	1	-360	360	164.6628	-9.7006	-162.6559	9.8857	0.0000	0.0000	0.0000	0.0000;
	27	91	0.00868	0.06405	0.096994	427	427	427	0	0	1	-360	360	113.2209	-5.6953	-112.3138	0.5670	0.0000	0.0000	0.0000	0.0000;
	146	30	0.016961	0.123659	0.196988	316	316	316	0	0	1	-360	360	56.3061	2.4354	-55.8325	-22.3042	0.0000	0.0000	0.0000	0.0000;
	135	33	0.00512	0.02618	0.029621	301	301	301	0	0	1	-360	360	-49.6907	16.6452	49.8093	-19.6261	0.0000	0.0000	0.0000	0.0000;
	134	20	0.01068	0.061961	0.094961	385	385	385	0	0	1	-360	360	-82.6043	11.3652	83.2308	-19.2446	0.0000	0.0000	0.0000	0.0000;
	164	21	0.014651	0.105891	0.170852	316	316	316	0	0	1	-360	360	61.0419	2.2461	-60.5724	-19.2166	0.0000	0.0000	0.0000	0.0000;
	40	109	0.01488	0.08161	0.114805	314	314	314	0	0	1	-360	360	-12.4035	12.3818	12.4680	-25.9395	0.0000	0.0000	0.0000	0.0000;
	39	91	0.011159	0.07231	0.103673	324	324	324	0	0	1	-360	360	-75.1634	17.2779	75.7286	-26.2467	0.0000	0.0000	0.0000	0.0000;
	178	83	0.005517	0.059484	0.170775	316	316	316	0	0	1	-360	360	-16.7940	-5.0235	16.8080	-15.8277	0.0000	0.0000	0.0000	0.0000;
	203	165	0.01176	0.068289	0.102802	324	324	324	0	0	1	-360	360	-161.1800	-3.2999	163.7976	6.2673	0.0000	0.0000	0.0000	0.0000;
	194	165	0.016818	0.089091	0.129935	358	358	358	0	0	1	-360	360	-136.8184	16.0823	139.5316	-17.3537	0.0000	0.0000	0.0000	0.0000;
	193	164	0.013843	0.087025	0.134842	383	383	383	0	0	1	-360	360	-141.8348	12.5448	144.2132	-13.8277	0.0000	0.0000	0.0000	0.0000;
	207	167	0.01676	0.097169	0.148685	269	269	269	0	0	1	-360	360	-79.8465	3.6705	80.7450	-16.6448	0.0000	0.0000	0.0000	0.0000;
	42	10	0.01269	0.074979	0.130196	351	351	351	0	0	1	-360	360	87.9443	-1.3211	-87.1052	-8.8469	0.0000	0.0000	0.0000	0.0000;
	198	18	0.014091	0.10413	0.15972	316	316	316	0	0	1	-360	360	-60.0057	-3.3113	60.4519	-11.7919	0.0000	0.0000	0.0000	0.0000;
	100	54	0.003719	0.0438	0.100962	457	457	457	0	0	1	-360	360	-41.3220	5.2641	41.3784	-16.8004	0.0000	0.0000	0.0000	0.0000;
	162	82	0.00194	0.02056	0.51584	1178	1178	1178	0	0	1	-360	360	-146.9447	-15.2558	147.3362	-36.2238	0.0000	0.0000	0.0000	0.0000;
	44	9	0.0015	0.01506	0.4032	1386	1386	1386	0	0	1	-360	360	201.6051	10.8869	-201.0367	-49.2837	0.0000	0.0000	0.0000	0.0000;
	185	150	0.00294	0.03463	0.9216	693	693	693	0	0	1	-360	360	-312.4449	-3.0932	315.1823	-63.2957	0.0000	0.0000	0.0000	0.0000;
	121	56	0.00169	0.01994	0.50624	831	831	831	0	0	1	-360	360	-18.0513	-19.8860	18.0573	-35.4897	0.0000	0.0000	0.0000	0.0000;
	29	93	0.00137	0.01625	0.41184	1386	1386	1386	0	0	1	-360	360	199.8748	-59.8376	-199.3561	20.8605	0.0000	0.0000	0.0000	0.0000;
	28	123	0.00231	0.02769	0.70144	1386	1386	1386	0	0	1	-360	360	251.9892	-44.3886	-250.6452	-15.9645	0.0000	0.0000	0.0000	0.0000;
	25	192	0.00207	0.02474	0.664	1386	1386	1386	0	0	1	-360	360	426.1505	2.6237	-422.6355	-31.3352	0.0000	0.0000	0.0000	0.0000;
	120	63	0.0015	0.01788	0.4512	831	831	831	0	0	1	-360	360	73.5451	25.6129	-73.4364	-73.3378	0.0000	0.0000	0.0000	0.0000;
	122	63	0.00469	0.05544	1.4048	831	831	831	0	0	0	-360	360	0.0000	0.0000	0.0000	0.0000	0.0000	0.0000	0.0000	0.0000;
	82	31	0.00331	0.03425	0.85888	977	977	977	0	0	1	-360	360	-80.4588	-60.9223	80.6639	-30.3279	0.0000	0.0000	0.0000	0.0000;
	92	28	0.00219	0.02369	0.59584	1178	1178	1178	0	0	1	-360	360	-135.6310	-1.9236	136.0163	-59.2023	0.0000	0.0000	0.0000	0.0000;
	12	4	0.01674	0.09711	0.144232	427	427	427	0	0	1	-360	360	-141.4859	-5.0568	144.4072	5.0312	0.0000	0.0000	0.0000	0.0000;
	30	11	0.0057	0.0407	0.06021	316	316	316	0	0	1	-360	360	-3.8045	10.7168	3.8152	-17.5846	0.0000	0.0000	0.0000	0.0000;
	24	4	0.004419	0.032229	0.049852	383	383	383	0	0	1	-360	360	60.3009	4.7656	-60.1665	-9.8216	0.0000	0.0000	0.0000	0.0000;
	17	7	0.014591	0.11219	0.165528	383	383	383	0	0	1	-360	360	-56.3917	-3.3959	56.7978	-12.6723	0.0000	0.0000	0.0000	0.0000;
	21	10	0.01211	0.087419	0.140166	316	316	316	0	0	1	-360	360	2.4561	5.0536	-2.4373	-21.1715	0.0000	0.0000	0.0000	0.0000;
	26	5	0.009773	0.050516	0.088959	377	377	377	0	0	1	-360	360	154.8343	-7.7467	-152.9268	6.7782	0.0000	0.0000	0.0000	0.0000;
	17	3	0.01068	0.07895	0.245194	274	274	274	0	0	1	-360	360	50.8413	-28.5196	-50.5836	1.9104	0.0000	0.0000	0.0000	0.0000;
	26	19	0.0057	0.039521	0.075533	440	440	440	0	0	1	-360	360	169.0740	-3.1668	-167.7476	3.1464	0.0000	0.0000	0.0000	0.0000;
	27	20	0.0057	0.039521	0.075533	440	440	440	0	0	1	-360	360	92.6089	2.0689	-92.2083	-8.5006	0.0000	0.0000	0.0000	0.0000;
	13	6	0.00525	0.03988	0.061952	316	316	316	0	0	1	-360	360	17.5768	-24.0448	-17.5435	17.1429	0.0000	0.0000	0.0000	0.0000;
	13	12	2.1e-05	0.000207	0	316	316	316	0	0	1	-360	360	-66.8005	-3.6414	66.8013	3.6494	0.0000	0.0000	0.0000	0.0000;
	32	13	0.00093	0.00651	0.011132	316	316	316	0	0	1	-360	360	-49.1976	-28.7783	49.2237	27.6862	0.0000	0.0000	0.0000	0.0000;
	23	11	0.00205	0.01326	0.022429	385	385	385	0	0	1	-360	360	-10.1239	-20.5329	10.1324	18.0198	0.0000	0.0000	0.0000	0.0000;
	33	5	0.007831	0.043	0.04962	301	301	301	0	0	1	-360	360	-60.3409	12.2120	60.5918	-16.8251	0.0000	0.0000	0.0000	0.0000;
	19	4	0.00293	0.01599	0.024781	324	324	324	0	0	1	-360	360	75.4314	4.0918	-75.2930	-6.3324	0.0000	0.0000	0.0000	0.0000;
	26	1	0.00155	0.01169	0.018198	633	633	633	0	0	1	-360	360	71.9839	78.6125	-71.8383	-79.7315	0.0000	0.0000	0.0000	0.0000;
	27	2	0.00155	0.01169	0.018198	633	633	633	0	0	1	-360	360	-2.2673	9.8263	2.2689	-12.0443	0.0000	0.0000	0.0000	0.0000;
	27	24	0.003841	0.028531	0.045883	392	392	392	0	0	1	-360	360	102.2943	3.6417	-101.9653	-6.8014	0.0000	0.0000	0.0000	0.0000;
	25	9	0.00298	0.03418	0.93504	831	831	831	0	0	1	-360	360	-100.4769	-51.8835	100.7560	-46.1077	0.0000	0.0000	0.0000	0.0000;
	28	25	0.00358	0.04262	1.0944	1386	1386	1386	0	0	1	-360	360	392.8655	-46.1779	-387.7994	-12.2618	0.0000	0.0000	0.0000	0.0000;
	14	29	0.00336	0.03977	1.02163	1316	1316	1316	0	0	1	-360	360	-284.0240	-38.6530	286.5565	-42.0008	0.0000	0.0000	0.0000	0.0000;
	8	15	0.00299	0.03675	0.9184	1150	1150	1150	0	0	1	-360	360	70.0055	-76.7788	-69.8507	-21.8239	0.0000	0.0000	0.0000	0.0000;
	8	14	0.00112	0.01329	0.341248	1150	1150	1150	0	0	1	-360	360	-140.6101	41.5813	140.8512	-75.5744	0.0000	0.0000	0.0000	0.0000;
	31	29	0.00075	0.009	0.22848	1150	1150	1150	0	0	1	-360	360	-202.9890	23.8849	203.2802	-45.3758	0.0000	0.0000	0.0000	0.0000;
	62	58	0.010479	0.060969	0.092047	269	269	269	0	0	1	-360	360	-8.2457	-4.6947	8.2518	-6.2059	0.0000	0.0000	0.0000	0.0000;
	60	55	0.00882	0.065641	0.100662	274	274	274	0	0	1	-360	360	-21.7260	6.1957	21.7712	-18.0505	0.0000	0.0000	0.0000	0.0000;
	67	34	0.011219	0.065581	0.098349	274	274	274	0	0	1	-360	360	-17.2100	-16.7049	17.2480	4.8985	0.0000	0.0000	0.0000	0.0000;
	50	34	0.01163	0.07031	0.105802	341	341	341	0	0	1	-360	360	7.2119	-22.6644	-7.1815	9.9251	0.0000	0.0000	0.0000	0.0000;
	58	42	0.00545	0.040211	0.066986	404	404	404	0	0	1	-360	360	-8.1120	12.9806	8.1283	-20.7795	0.0000	0.0000	0.0000	0.0000;
	59	43	0.00545	0.040211	0.066986	404	404	404	0	0	1	-360	360	-8.4286	13.1226	8.4452	-20.9189	0.0000	0.0000	0.0000	0.0000;
	59	34	0.00837	0.04868	0.073481	379	379	379	0	0	1	-360	360	-19.8935	-45.1735	20.0386	37.1237	0.0000	0.0000	0.0000	0.0000;
	68	51	0.003159	0.02076	0.03146	385	385	385	0	0	1	-360	360	47.6353	-26.8667	-47.5594	23.5686	0.0000	0.0000	0.0000	0.0000;
	51	38	0.006979	0.051961	0.079666	316	316	316	0	0	1	-360	360	22.9181	-7.6631	-22.8873	-1.7529	0.0000	0.0000	0.0000	0.0000;
	36	55	0.00374	0.027831	0.042689	274	274	274	0	0	1	-360	360	-22.7691	-2.2299	22.7852	-2.7910	0.0000	0.0000	0.0000	0.0000;
	37	35	0.00769	0.057271	0.087894	316	316	316	0	0	1	-360	360	20.0498	23.5611	-19.9709	-33.3935	0.0000	0.0000	0.0000	0.0000;
	54	37	0.00556	0.04145	0.063598	383	383	383	0	0	1	-360	360	15.0648	-3.7486	-15.0543	-3.8322	0.0000	0.0000	0.0000	0.0000;
	67	36	0.004521	0.03368	0.051691	392	392	392	0	0	1	-360	360	-5.3176	13.2256	5.3286	-19.3916	0.0000	0.0000	0.0000	0.0000;
	67	66	0.00151	0.008781	0.013165	341	341	341	0	0	1	-360	360	22.5275	3.4793	-22.5210	-5.0386	0.0000	0.0000	0.0000	0.0000;
	61	42	0.00574	0.042831	0.065727	404	404	404	0	0	1	-360	360	-19.3979	12.7964	19.4296	-20.3274	0.0000	0.0000	0.0000	0.0000;
	62	43	0.00707	0.045409	0.069309	314	314	314	0	0	1	-360	360	-18.3247	11.8811	18.3600	-19.8455	0.0000	0.0000	0.0000	0.0000;
	61	39	0.01213	0.062151	0.093712	314	314	314	0	0	1	-360	360	-10.2076	-33.8712	10.3000	23.0365	0.0000	0.0000	0.0000	0.0000;
	60	40	0.002479	0.017979	0.027588	316	316	316	0	0	1	-360	360	-45.7236	-18.6004	45.7720	15.5819	0.0000	0.0000	0.0000	0.0000;
	46	39	0.002401	0.01494	0.022525	341	341	341	0	0	1	-360	360	-40.9306	1.6159	40.9637	-4.1701	0.0000	0.0000	0.0000	0.0000;
	49	45	0.00167	0.0189	0.54176	1150	1150	1150	0	0	1	-360	360	9.1007	-46.3968	-9.0952	-13.0502	0.0000	0.0000	0.0000	0.0000;
	57	53	0.00109	0.01277	0.34176	1150	1150	1150	0	0	1	-360	360	61.5413	-38.9890	-61.4995	2.0252	0.0000	0.0000	0.0000	0.0000;
	41	57	0.002259	0.026439	0.70784	1150	1150	1150	0	0	1	-360	360	-9.4827	-64.9483	9.4995	-11.7719	0.0000	0.0000	0.0000	0.0000;
	63	57	0.00094	0.01097	0.29376	1393	1393	1393	0	0	1	-360	360	-152.2474	-81.1588	152.4871	52.0771	0.0000	0.0000	0.0000	0.0000;
	47	64	0.00113	0.01406	0.37488	1386	1386	1386	0	0	1	-360	360	-242.1691	12.3492	242.7943	-44.9742	0.0000	0.0000	0.0000	0.0000;
	52	44	0.00176	0.02144	0.57344	1150	1150	1150	0	0	1	-360	360	-43.2438	-36.0119	43.2741	-26.6772	0.0000	0.0000	0.0000	0.0000;
	96	125	0.004876	0.033616	0.059609	404	404	404	0	0	1	-360	360	11.8577	3.4359	-11.8500	-10.5876	0.0000	0.0000	0.0000	0.0000;
	75	106	0.01093	0.059194	0.08439	246	246	246	0	0	1	-360	360	-0.1211	4.0315	0.1287	-14.0662	0.0000	0.0000	0.0000	0.0000;
	106	94	0.001942	0.013926	0.022845	404	404	404	0	0	1	-360	360	58.1256	-7.4300	-58.0698	5.1155	0.0000	0.0000	0.0000	0.0000;
	79	85	0.004318	0.029752	0.05264	316	316	316	0	0	1	-360	360	-7.2036	-13.8374	7.2097	7.6252	0.0000	0.0000	0.0000	0.0000;
	131	130	0.000661	0.004959	0.007579	379	379	379	0	0	1	-360	360	47.5659	-20.6892	-47.5513	19.8814	0.0000	0.0000	0.0000	0.0000;
	107	131	0.005372	0.040393	0.060055	379	379	379	0	0	1	-360	360	-89.1506	-16.5509	89.5175	12.1084	0.0000	0.0000	0.0000	0.0000;
	91	131	0.000826	0.005248	0.008683	301	301	301	0	0	1	-360	360	137.2123	-8.8128	-137.0834	8.5807	0.0000	0.0000	0.0000	0.0000;
	100	119	0.015888	0.087603	0.116818	314	314	314	0	0	1	-360	360	1.0693	8.2331	-1.0384	-22.0600	0.0000	0.0000	0.0000	0.0000;
	81	113	0.002169	0.014587	0.025749	269	269	269	0	0	1	-360	360	2.1288	2.6793	-2.1284	-5.7193	0.0000	0.0000	0.0000	0.0000;
	116	101	0.017727	0.116777	0.163611	246	246	246	0	0	1	-360	360	9.9135	-21.9023	-9.8765	2.5270	0.0000	0.0000	0.0000	0.0000;
	126	74	0.00593	0.04093	0.072145	404	404	404	0	0	1	-360	360	14.3919	0.8881	-14.3804	-9.4825	0.0000	0.0000	0.0000	0.0000;
	108	90	0.003905	0.028471	0.044983	383	383	383	0	0	1	-360	360	-152.3332	-2.0691	153.0897	2.1670	0.0000	0.0000	0.0000	0.0000;
	118	79	0.008161	0.042417	0.061197	356	356	356	0	0	1	-360	360	-12.6862	-1.0449	12.6977	-6.1446	0.0000	0.0000	0.0000	0.0000;
	119	78	0.008161	0.042417	0.061197	356	356	356	0	0	1	-360	360	-39.8016	5.7689	39.9168	-12.4164	0.0000	0.0000	0.0000	0.0000;
	79	76	0.005186	0.038388	0.058748	453	453	453	0	0	1	-360	360	207.2662	-4.2892	-205.3854	11.2972	0.0000	0.0000	0.0000	0.0000;
	78	73	0.002128	0.014029	0.022603	301	301	301	0	0	1	-360	360	118.3405	-6.8450	-118.0881	5.8373	0.0000	0.0000	0.0000	0.0000;
	114	78	0.004628	0.027748	0.046115	324	324	324	0	0	1	-360	360	-50.5756	1.5763	50.6765	-6.4229	0.0000	0.0000	0.0000	0.0000;
	103	72	0.011219	0.070744	0.115705	246	246	246	0	0	1	-360	360	-87.1432	2.5710	87.8795	-11.5281	0.0000	0.0000	0.0000	0.0000;
	110	117	0.006012	0.041467	0.073636	383	383	383	0	0	1	-360	360	-40.5952	-7.2403	40.6797	-0.8858	0.0000	0.0000	0.0000	0.0000;
	91	69	0.002066	0.012789	0.020551	269	269	269	0	0	1	-360	360	36.3942	-2.9990	-36.3715	0.6515	0.0000	0.0000	0.0000	0.0000;
	86	90	0.001364	0.009731	0.016243	453	453	453	0	0	1	-360	360	-78.6201	12.3632	78.6917	-13.8196	0.0000	0.0000	0.0000	0.0000;
	129	87	0.000579	0.004112	0.007008	404	404	404	0	0	1	-360	360	-45.6408	3.1891	45.6508	-3.9667	0.0000	0.0000	0.0000	0.0000;
	132	76	0.000847	0.00624	0.009544	457	457	457	0	0	1	-360	360	-137.0000	7.8604	137.1366	-7.9689	0.0000	0.0000	0.0000	0.0000;
	133	77	0.000847	0.00626	0.009477	457	457	457	0	0	1	-360	360	-137.0000	7.9353	137.1367	-8.0326	0.0000	0.0000	0.0000	0.0000;
	102	77	0.001591	0.011116	0.019128	453	453	453	0	0	1	-360	360	104.6561	-9.3816	-104.5063	8.1906	0.0000	0.0000	0.0000	0.0000;
	125	104	0.003141	0.021591	0.038391	404	404	404	0	0	1	-360	360	96.3585	13.0162	-96.1105	-15.9165	0.0000	0.0000	0.0000	0.0000;
	126	111	0.004545	0.03157	0.055312	316	316	316	0	0	1	-360	360	70.6938	22.1783	-70.4808	-27.3044	0.0000	0.0000	0.0000	0.0000;
	104	84	0.001446	0.009917	0.017598	316	316	316	0	0	1	-360	360	-0.1448	7.5681	0.1457	-9.6605	0.0000	0.0000	0.0000	0.0000;
	105	95	0.003822	0.026674	0.046154	316	316	316	0	0	1	-360	360	-27.5285	10.7405	27.5587	-16.0255	0.0000	0.0000	0.0000	0.0000;
	112	80	0.007769	0.041281	0.063907	269	269	269	0	0	1	-360	360	6.7338	-3.9537	-6.7308	-3.5894	0.0000	0.0000	0.0000	0.0000;
	89	78	0.004463	0.030413	0.048671	246	246	246	0	0	1	-360	360	-3.7750	-6.9887	3.7761	1.2434	0.0000	0.0000	0.0000	0.0000;
	117	108	0.005888	0.035062	0.052349	246	246	246	0	0	1	-360	360	-30.4988	-14.1064	30.5509	8.1763	0.0000	0.0000	0.0000	0.0000;
	109	99	0.003161	0.023409	0.036165	316	316	316	0	0	1	-360	360	41.8386	7.5820	-41.7899	-11.5406	0.0000	0.0000	0.0000	0.0000;
	116	79	0.001839	0.012603	0.022399	316	316	316	0	0	1	-360	360	51.6340	-1.2452	-51.5927	-1.1271	0.0000	0.0000	0.0000	0.0000;
	107	88	0.001715	0.009607	0.014239	301	301	301	0	0	1	-360	360	69.1123	27.4170	-69.0319	-28.6530	0.0000	0.0000	0.0000	0.0000;
	98	79	0.003409	0.024421	0.039969	246	246	246	0	0	1	-360	360	30.1958	6.0564	-30.1677	-10.6017	0.0000	0.0000	0.0000	0.0000;
	117	78	0.001839	0.012603	0.02239	316	316	316	0	0	1	-360	360	-40.2601	16.2865	40.2901	-18.7345	0.0000	0.0000	0.0000	0.0000;
	83	97	0.005702	0.041488	0.066172	404	404	404	0	0	1	-360	360	24.6729	11.8097	-24.6329	-19.5890	0.0000	0.0000	0.0000	0.0000;
	124	118	0.004587	0.024628	0.036165	314	314	314	0	0	1	-360	360	-25.5968	-11.4804	25.6257	7.3640	0.0000	0.0000	0.0000	0.0000;
	124	110	0.002149	0.013327	0.022109	246	246	246	0	0	1	-360	360	-11.5650	-3.9904	11.5676	1.4013	0.0000	0.0000	0.0000	0.0000;
	100	71	0.000785	0.004876	0.00726	269	269	269	0	0	1	-360	360	0.0000	-0.8797	-0.0000	-0.0000	0.0000	0.0000	0.0000	0.0000;
	101	70	0.000785	0.004876	0.007241	269	269	269	0	0	1	-360	360	0.0000	-0.8774	-0.0000	-0.0000	0.0000	0.0000	0.0000	0.0000;
	93	127	0.002413	0.027544	0.767968	831	831	831	0	0	1	-360	360	128.6905	13.6222	-128.2586	-91.7746	0.0000	0.0000	0.0000	0.0000;
	82	127	0.002131	0.024319	0.67744	1386	1386	1386	0	0	1	-360	360	89.2508	-12.3982	-89.0820	-58.2681	0.0000	0.0000	0.0000	0.0000;
	122	115	0.000913	0.0104	0.289888	1150	1150	1150	0	0	1	-360	360	39.1907	44.8900	-39.1469	-75.7420	0.0000	0.0000	0.0000	0.0000;
	123	121	0.003119	0.035631	0.991072	831	831	831	0	0	1	-360	360	107.4764	-73.0143	-107.1349	-31.3452	0.0000	0.0000	0.0000	0.0000;
	115	128	0.000919	0.010512	0.292928	1150	1150	1150	0	0	1	-360	360	-55.2703	41.4289	55.3244	-72.1351	0.0000	0.0000	0.0000	0.0000;
	173	156	0.01545	0.073349	0.126614	427	427	427	0	0	1	-360	360	-111.7058	7.5328	113.3365	-15.1503	0.0000	0.0000	0.0000	0.0000;
	174	155	0.01545	0.073349	0.126614	427	427	427	0	0	1	-360	360	-111.4806	7.5081	113.1048	-15.1568	0.0000	0.0000	0.0000	0.0000;
	176	155	0.01457	0.07955	0.14007	324	324	324	0	0	1	-360	360	-49.7943	5.8008	50.1128	-21.2295	0.0000	0.0000	0.0000	0.0000;
	177	156	0.01457	0.07955	0.14007	324	324	324	0	0	1	-360	360	-49.9176	5.8194	50.2376	-21.2402	0.0000	0.0000	0.0000	0.0000;
	176	144	0.006031	0.04401	0.069793	316	316	316	0	0	1	-360	360	27.4986	-2.2493	-27.4613	-6.0397	0.0000	0.0000	0.0000	0.0000;
	165	140	0.011031	0.08057	0.124127	404	404	404	0	0	1	-360	360	80.2233	-17.3053	-79.6290	6.5868	0.0000	0.0000	0.0000	0.0000;
	137	155	0.005831	0.04231	0.070664	383	383	383	0	0	1	-360	360	-67.3496	13.4107	67.5798	-20.3992	0.0000	0.0000	0.0000	0.0000;
	170	173	0.01849	0.095599	0.159139	305	305	305	0	0	1	-360	360	-57.2888	15.1204	57.8766	-31.4277	0.0000	0.0000	0.0000	0.0000;
	152	174	0.010581	0.053	0.088475	385	385	385	0	0	1	-360	360	-68.0154	11.7120	68.4466	-20.2156	0.0000	0.0000	0.0000	0.0000;
	154	156	0.012521	0.091359	0.145394	453	453	453	0	0	1	-360	360	-78.2614	6.9189	78.9119	-19.9780	0.0000	0.0000	0.0000	0.0000;
	136	137	0.00506	0.036539	0.063598	305	305	305	0	0	1	-360	360	-35.6086	3.0591	35.6628	-10.4860	0.0000	0.0000	0.0000	0.0000;
	148	143	0.01043	0.077891	0.122065	383	383	383	0	0	1	-360	360	16.8288	-18.0712	-16.7942	3.5748	0.0000	0.0000	0.0000	0.0000;
	153	181	0.007702	0.056917	0.086733	316	316	316	0	0	1	-360	360	33.0418	10.0446	-32.9584	-19.9755	0.0000	0.0000	0.0000	0.0000;
	153	180	0.002256	0.016674	0.02541	333	333	333	0	0	1	-360	360	-116.6199	0.2240	116.8700	-1.5000	0.0000	0.0000	0.0000	0.0000;
	175	147	0.009147	0.089554	0.215196	246	246	246	0	0	1	-360	360	-48.3421	-13.9825	48.5208	-10.1552	0.0000	0.0000	0.0000	0.0000;
	175	169	0.00244	0.01318	0.021296	341	341	341	0	0	0	-360	360	0.0000	0.0000	0.0000	0.0000	0.0000	0.0000	0.0000	0.0000;
	169	140	0.00355	0.02593	0.041237	404	404	404	0	0	1	-360	360	-48.3070	30.1943	48.4055	-34.5088	0.0000	0.0000	0.0000	0.0000;
	170	167	0.01312	0.076219	0.116644	324	324	324	0	0	1	-360	360	94.5679	-20.0242	-93.5942	11.3686	0.0000	0.0000	0.0000	0.0000;
	169	152	0.009341	0.05225	0.087701	305	305	305	0	0	1	-360	360	-35.6935	21.4033	35.8451	-31.2281	0.0000	0.0000	0.0000	0.0000;
	146	135	0.006141	0.032521	0.052456	356	356	356	0	0	1	-360	360	-104.7574	11.7487	105.3261	-15.0900	0.0000	0.0000	0.0000	0.0000;
	147	134	0.00438	0.03188	0.050723	453	453	453	0	0	1	-360	360	-108.0304	7.1077	108.4569	-10.1469	0.0000	0.0000	0.0000	0.0000;
	164	147	0.000479	0.00331	0.005711	404	404	404	0	0	1	-360	360	-48.6140	54.7732	48.6354	-55.3171	0.0000	0.0000	0.0000	0.0000;
	165	146	0.000479	0.00331	0.005711	404	404	404	0	0	1	-360	360	-55.6710	58.4228	55.6969	-58.9353	0.0000	0.0000	0.0000	0.0000;
	154	143	0.010539	0.076859	0.122355	316	316	316	0	0	1	-360	360	47.4436	-5.7024	-47.2500	-7.8288	0.0000	0.0000	0.0000	0.0000;
	159	148	0.00469	0.034651	0.053821	383	383	383	0	0	1	-360	360	-49.3913	9.5286	49.4925	-15.2609	0.0000	0.0000	0.0000	0.0000;
	149	141	0.006469	0.0413	0.069212	383	383	383	0	0	1	-360	360	42.3213	-3.0571	-42.2248	-4.6268	0.0000	0.0000	0.0000	0.0000;
	168	141	0.00105	0.007211	0.01028	316	316	316	0	0	1	-360	360	-18.0124	-8.4518	18.0158	7.2463	0.0000	0.0000	0.0000	0.0000;
	168	159	0.006099	0.044831	0.070954	316	316	316	0	0	1	-360	360	-4.3954	-16.3381	4.4039	7.8838	0.0000	0.0000	0.0000	0.0000;
	176	136	0.002211	0.01655	0.024781	316	316	316	0	0	1	-360	360	6.5040	-4.8240	-6.5030	1.7842	0.0000	0.0000	0.0000	0.0000;
	178	177	0.005169	0.036979	0.058951	316	316	316	0	0	1	-360	360	-11.5102	1.9663	11.5171	-9.1719	0.0000	0.0000	0.0000	0.0000;
	181	173	0.002401	0.017789	0.027588	381	381	381	0	0	1	-360	360	-32.6176	5.3924	32.6398	-8.5508	0.0000	0.0000	0.0000	0.0000;
...